1
    SWAT Dec 23 2016    VER 2016/Rev 664                                                                 0/ 0/   0      0: 0: 0

    General Input/Output section (file.cio):                                        
    4/30/2018 12:00:00 AM ARCGIS-SWAT interface AV                                  
                                                                                    


LULC  HRU       GIS  SUB  MGT  MON   AREAkm2  PNDPCPmm  PND_INmmPSED_It/ha  PNDEVPmm  PNDSEPmm PND_OUTmmPSED_Ot/ha PNDVOLm^3PNDORGNppm PNDNO3ppmPNDORGPppmPNDMINPppmPNDCHLAppm  PNDSECIm  WETPCPmm  WET_INmmWSED_It/ha  WETEVPmm  WETSEPmm WET_OUTmmWSED_Ot/ha WETVOLm^3WETORGNppm WETNO3ppmWETORGPppmWETMINPppmWETCHLAppm  WETSECIm  POTPCPmm  POT_INmmOSED_It/ha  POTEVPmm  POTSEPmm POT_OUTmmOSED_Ot/ha POTVOLm^3  POT_SAhaHRU_SURQmmPLANT_ETmm SOIL_ETmm
WWHT   69 000060001    6    0    1    30.526     0.000     0.025     0.000     0.000     0.000     0.000     0.0000.1012E+05     0.000     2.626     0.000     0.000     0.000    20.891     0.000     0.000     0.000     0.000     0.000     0.000     0.0000.0000E+00     0.000     0.000     0.000     0.000     0.000     0.000     0.000     0.000     0.000     0.000     0.000     0.000     0.0000.0000E+00     0.000     0.000     0.000     7.770
WWHT   70 000060002    6    0    1    46.551     0.001     0.029     0.000     0.000     0.000     0.000     0.0000.1802E+05     0.000     1.588     0.000     0.000     0.000    17.977     0.000     0.000     0.000     0.000     0.000     0.000     0.0000.0000E+00     0.000     0.000     0.000     0.000     0.000     0.000     0.000     0.000     0.000     0.000     0.000     0.000     0.0000.0000E+00     0.000     0.000     0.000     7.792
WWHT   71 000060003    6    0    1    12.233     0.001     0.376     0.000     0.000     0.000     0.377     0.0000.1700E+05     0.000     2.460     0.000     0.000     0.000     0.000     0.000     0.000     0.000     0.000     0.000     0.000     0.0000.0000E+00     0.000     0.000     0.000     0.000     0.000     0.000     0.000     0.000     0.000     0.000     0.000     0.000     0.0000.0000E+00     0.000     0.000     0.000     7.523
WWHT   72 000060004    6    0    1     1.455     0.000     4.416     0.000     0.000     0.000     4.416     0.0000.2021E+04     0.000     4.063     0.000     0.000     0.000     0.000     0.000     0.000     0.000     0.000     0.000     0.000     0.0000.0000E+00     0.000     0.000     0.000     0.000     0.000     0.000     0.000     0.000     0.000     0.000     0.000     0.000     0.0000.0000E+00     0.000     0.000     0.000     7.603
WWHT   73 000060005    6    0    1     2.714     0.000     0.506     0.000     0.000     0.000     0.506     0.0000.3772E+04     0.000     2.456     0.000     0.000     0.000     0.000     0.000     0.000     0.000     0.000     0.000     0.000     0.0000.0000E+00     0.000     0.000     0.000     0.000     0.000     0.000     0.000     0.000     0.000     0.000     0.000     0.000     0.0000.0000E+00     0.000     0.000     0.000     7.744
WWHT   74 000060006    6    0    1    15.631     0.000     0.033     0.000     0.000     0.000     0.000     0.0000.8176E+04     0.000     2.007     0.000     0.000     0.000   187.997     0.000     0.000     0.000     0.000     0.000     0.000     0.0000.0000E+00     0.000     0.000     0.000     0.000     0.000     0.000     0.000     0.000     0.000     0.000     0.000     0.000     0.0000.0000E+00     0.000     0.000     0.000     7.770
AGRL   75 000060007    6    0    1    51.756     0.001     0.027     0.000     0.000     0.000     0.000     0.0000.2755E+05    13.740     0.478     1.626     2.574     0.312     0.419     0.000     0.000     0.000     0.000     0.000     0.000     0.0000.0000E+00     0.000     0.000     0.000     0.000     0.000     0.000     0.000     0.000     0.000     0.000     0.000     0.000     0.0000.0000E+00     0.000     0.000     0.000     8.625
AGRL   76 000060008    6    0    1     4.906     0.000     0.448     0.000     0.000     0.000     0.449     0.0000.6817E+04     0.000     0.889     0.000     0.000     0.000     0.000     0.000     0.000     0.000     0.000     0.000     0.000     0.0000.0000E+00     0.000     0.000     0.000     0.000     0.000     0.000     0.000     0.000     0.000     0.000     0.000     0.000     0.0000.0000E+00     0.000     0.000     0.000     8.562
AGRL   77 000060009    6    0    1    31.692     0.001     0.030     0.000     0.000     0.000     0.000     0.0000.1338E+05     0.248     0.920     0.030     0.034     0.013     1.891     0.000     0.000     0.000     0.000     0.000     0.000     0.0000.0000E+00     0.000     0.000     0.000     0.000     0.000     0.000     0.000     0.000     0.000     0.000     0.000     0.000     0.0000.0000E+00     0.000     0.000     0.000     8.572
AGRL   78 000060010    6    0    1     2.351     0.000     0.627     0.000     0.000     0.000     0.627     0.0000.3266E+04     0.000     0.708     0.000     0.000     0.000     0.000     0.000     0.000     0.000     0.000     0.000     0.000     0.0000.0000E+00     0.000     0.000     0.000     0.000     0.000     0.000     0.000     0.000     0.000     0.000     0.000     0.000     0.0000.0000E+00     0.000     0.000     0.000     8.557
AGRL   79 000060011    6    0    1    14.934     0.000     0.039     0.000     0.000     0.000     0.000     0.0000.8011E+04     0.000     0.934     0.000     0.000     0.000   189.645     0.000     0.000     0.000     0.000     0.000     0.000     0.0000.0000E+00     0.000     0.000     0.000     0.000     0.000     0.000     0.000     0.000     0.000     0.000     0.000     0.000     0.0000.0000E+00     0.000     0.000     0.000     8.563
RNGB   80 000060012    6    0    1     5.827     0.000     0.438     0.000     0.000     0.000     0.439     0.0000.8097E+04     0.000     0.526     0.000     0.000     0.000     0.000     0.000     0.000     0.000     0.000     0.000     0.000     0.0000.0000E+00     0.000     0.000     0.000     0.000     0.000     0.000     0.000     0.000     0.000     0.000     0.000     0.000     0.0000.0000E+00     0.000     0.000     0.000     8.573
RNGB   81 000060013    6    0    1    41.846     0.001     0.026     0.000     0.000     0.000     0.000     0.0000.1515E+05     0.000     0.801     0.000     0.000     0.000    22.300     0.000     0.000     0.000     0.000     0.000     0.000     0.0000.0000E+00     0.000     0.000     0.000     0.000     0.000     0.000     0.000     0.000     0.000     0.000     0.000     0.000     0.0000.0000E+00     0.000     0.000     0.000     8.589
RNGB   82 000060014    6    0    1     2.614     0.000     0.460     0.000     0.000     0.000     0.460     0.0000.3632E+04     0.000     0.917     0.000     0.000     0.000     0.000     0.000     0.000     0.000     0.000     0.000     0.000     0.0000.0000E+00     0.000     0.000     0.000     0.000     0.000     0.000     0.000     0.000     0.000     0.000     0.000     0.000     0.0000.0000E+00     0.000     0.000     0.000     8.544
RNGB   83 000060015    6    0    1     8.374     0.000     0.032     0.000     0.000     0.000     0.000     0.0000.3764E+04     0.000     1.061     0.000     0.000     0.000   177.220     0.000     0.000     0.000     0.000     0.000     0.000     0.0000.0000E+00     0.000     0.000     0.000     0.000     0.000     0.000     0.000     0.000     0.000     0.000     0.000     0.000     0.0000.0000E+00     0.000     0.000     0.000     8.556
RNGB   84 000060016    6    0    1    14.549     0.001     0.331     0.000     0.000     0.000     0.331     0.0000.2022E+05     0.000     0.930     0.000     0.000     0.000     0.000     0.000     0.000     0.000     0.000     0.000     0.000     0.0000.0000E+00     0.000     0.000     0.000     0.000     0.000     0.000     0.000     0.000     0.000     0.000     0.000     0.000     0.0000.0000E+00     0.000     0.000     0.000     8.359
WWHT   69 000060001    6    0    2    30.526     0.000     0.022     0.000     0.000     0.000     0.000     0.0000.1079E+05     0.000     2.567     0.000     0.000     0.000    21.165     0.000     0.000     0.000     0.000     0.000     0.000     0.0000.0000E+00     0.000     0.000     0.000     0.000     0.000     0.000     0.000     0.000     0.000     0.000     0.000     0.000     0.0000.0000E+00     0.000     0.000     0.000    26.246
WWHT   70 000060002    6    0    2    46.551     0.000     0.026     0.000     0.000     0.000     0.000     0.0000.1925E+05     0.000     1.600     0.000     0.000     0.000    18.243     0.000     0.000     0.000     0.000     0.000     0.000     0.0000.0000E+00     0.000     0.000     0.000     0.000     0.000     0.000     0.000     0.000     0.000     0.000     0.000     0.000     0.0000.0000E+00     0.000     0.000     0.000    26.602
WWHT   71 000060003    6    0    2    12.233     0.000     0.139     0.000     0.000     0.000     0.139     0.0000.1700E+05     0.000     2.355     0.000     0.000     0.000     0.000     0.000     0.000     0.000     0.000     0.000     0.000     0.0000.0000E+00     0.000     0.000     0.000     0.000     0.000     0.000     0.000     0.000     0.000     0.000     0.000     0.000     0.0000.0000E+00     0.000     0.000     0.000    21.148
WWHT   72 000060004    6    0    2     1.455     0.000     0.993     0.000     0.000     0.000     0.993     0.0000.2021E+04     0.000     3.014     0.000     0.000     0.000     0.000     0.000     0.000     0.000     0.000     0.000     0.000     0.0000.0000E+00     0.000     0.000     0.000     0.000     0.000     0.000     0.000     0.000     0.000     0.000     0.000     0.000     0.0000.0000E+00     0.000     0.000     0.000    20.078
WWHT   73 000060005    6    0    2     2.714     0.000     0.354     0.000     0.000     0.000     0.354     0.0000.3772E+04     0.000     2.362     0.000     0.000     0.000     0.000     0.000     0.000     0.000     0.000     0.000     0.000     0.0000.0000E+00     0.000     0.000     0.000     0.000     0.000     0.000     0.000     0.000     0.000     0.000     0.000     0.000     0.0000.0000E+00     0.000     0.000     0.000    24.969
WWHT   74 000060006    6    0    2    15.631     0.000     0.034     0.000     0.000     0.000     0.000     0.0000.8703E+04     0.000     2.000     0.000     0.000     0.000   192.261     0.000     0.000     0.000     0.000     0.000     0.000     0.0000.0000E+00     0.000     0.000     0.000     0.000     0.000     0.000     0.000     0.000     0.000     0.000     0.000     0.000     0.0000.0000E+00     0.000     0.000     0.000    24.963
AGRL   75 000060007    6    0    2    51.756     0.000     0.029     0.000     0.001     0.000     0.000     0.0000.2904E+05    12.827     0.539     1.498     2.372     0.294     0.432     0.000     0.000     0.000     0.000     0.000     0.000     0.0000.0000E+00     0.000     0.000     0.000     0.000     0.000     0.000     0.000     0.000     0.000     0.000     0.000     0.000     0.0000.0000E+00     0.000     0.000     0.000    28.830
AGRL   76 000060008    6    0    2     4.906     0.000     0.256     0.000     0.000     0.000     0.256     0.0000.6817E+04     0.000     0.878     0.000     0.000     0.000     0.000     0.000     0.000     0.000     0.000     0.000     0.000     0.0000.0000E+00     0.000     0.000     0.000     0.000     0.000     0.000     0.000     0.000     0.000     0.000     0.000     0.000     0.0000.0000E+00     0.000     0.000     0.000    28.430
AGRL   77 000060009    6    0    2    31.692     0.000     0.028     0.000     0.000     0.000     0.000     0.0000.1428E+05     0.230     0.907     0.027     0.031     0.012     1.950     0.000     0.000     0.000     0.000     0.000     0.000     0.0000.0000E+00     0.000     0.000     0.000     0.000     0.000     0.000     0.000     0.000     0.000     0.000     0.000     0.000     0.0000.0000E+00     0.000     0.000     0.000    28.750
AGRL   78 000060010    6    0    2     2.351     0.000     0.365     0.000     0.000     0.000     0.365     0.0000.3266E+04     0.000     0.759     0.000     0.000     0.000     0.000     0.000     0.000     0.000     0.000     0.000     0.000     0.0000.0000E+00     0.000     0.000     0.000     0.000     0.000     0.000     0.000     0.000     0.000     0.000     0.000     0.000     0.0000.0000E+00     0.000     0.000     0.000    26.348
AGRL   79 000060011    6    0    2    14.934     0.000     0.036     0.000     0.000     0.000     0.000     0.0000.8553E+04     0.000     0.922     0.000     0.000     0.000   194.159     0.000     0.000     0.000     0.000     0.000     0.000     0.0000.0000E+00     0.000     0.000     0.000     0.000     0.000     0.000     0.000     0.000     0.000     0.000     0.000     0.000     0.0000.0000E+00     0.000     0.000     0.000    26.568
RNGB   80 000060012    6    0    2     5.827     0.000     0.248     0.000     0.000     0.000     0.248     0.0000.8097E+04     0.000     0.484     0.000     0.000     0.000     0.000     0.000     0.000     0.000     0.000     0.000     0.000     0.0000.0000E+00     0.000     0.000     0.000     0.000     0.000     0.000     0.000     0.000     0.000     0.000     0.000     0.000     0.0000.0000E+00     0.000     0.000     0.000    28.350
RNGB   81 000060013    6    0    2    41.846     0.000     0.024     0.000     0.000     0.000     0.000     0.0000.1616E+05     0.000     0.760     0.000     0.000     0.000    22.608     0.000     0.000     0.000     0.000     0.000     0.000     0.0000.0000E+00     0.000     0.000     0.000     0.000     0.000     0.000     0.000     0.000     0.000     0.000     0.000     0.000     0.0000.0000E+00     0.000     0.000     0.000    28.829
RNGB   82 000060014    6    0    2     2.614     0.000     0.266     0.000     0.000     0.000     0.266     0.0000.3632E+04     0.000     0.904     0.000     0.000     0.000     0.000     0.000     0.000     0.000     0.000     0.000     0.000     0.0000.0000E+00     0.000     0.000     0.000     0.000     0.000     0.000     0.000     0.000     0.000     0.000     0.000     0.000     0.0000.0000E+00     0.000     0.000     0.000    28.124
RNGB   83 000060015    6    0    2     8.374     0.000     0.030     0.000     0.000     0.000     0.000     0.0000.4018E+04     0.000     1.046     0.000     0.000     0.000   181.420     0.000     0.000     0.000     0.000     0.000     0.000     0.0000.0000E+00     0.000     0.000     0.000     0.000     0.000     0.000     0.000     0.000     0.000     0.000     0.000     0.000     0.0000.0000E+00     0.000     0.000     0.000    28.398
RNGB   84 000060016    6    0    2    14.549     0.000     0.120     0.000     0.000     0.000     0.120     0.0000.2022E+05     0.000     0.979     0.000     0.000     0.000     0.000     0.000     0.000     0.000     0.000     0.000     0.000     0.0000.0000E+00     0.000     0.000     0.000     0.000     0.000     0.000     0.000     0.000     0.000     0.000     0.000     0.000     0.0000.0000E+00     0.000     0.000     0.000    23.367
WWHT   69 000060001    6    0    3    30.526     0.000     0.013     0.000     0.000     0.000     0.000     0.0000.1119E+05     0.000     2.524     0.000     0.000     0.000    21.215     0.000     0.000     0.000     0.000     0.000     0.000     0.0000.0000E+00     0.000     0.000     0.000     0.000     0.000     0.000     0.000     0.000     0.000     0.000     0.000     0.000     0.0000.0000E+00     0.000     0.000     2.742    29.735
WWHT   70 000060002    6    0    3    46.551     0.001     0.016     0.000     0.001     0.000     0.000     0.0000.1999E+05     0.000     1.574     0.000     0.000     0.000    18.317     0.000     0.000     0.000     0.000     0.000     0.000     0.0000.0000E+00     0.000     0.000     0.000     0.000     0.000     0.000     0.000     0.000     0.000     0.000     0.000     0.000     0.0000.0000E+00     0.000     0.000     2.743    31.129
WWHT   71 000060003    6    0    3    12.233     0.000     0.126     0.000     0.001     0.000     0.126     0.0000.1700E+05     0.000     2.222     0.000     0.000     0.000     0.000     0.000     0.000     0.000     0.000     0.000     0.000     0.0000.0000E+00     0.000     0.000     0.000     0.000     0.000     0.000     0.000     0.000     0.000     0.000     0.000     0.000     0.0000.0000E+00     0.000     0.000     2.378    23.507
WWHT   72 000060004    6    0    3     1.455     0.000     1.601     0.000     0.000     0.000     1.601     0.0000.2021E+04     0.000     1.401     0.000     0.000     0.000     0.000     0.000     0.000     0.000     0.000     0.000     0.000     0.0000.0000E+00     0.000     0.000     0.000     0.000     0.000     0.000     0.000     0.000     0.000     0.000     0.000     0.000     0.0000.0000E+00     0.000     0.000     2.377    21.807
WWHT   73 000060005    6    0    3     2.714     0.000     0.159     0.000     0.000     0.000     0.159     0.0000.3772E+04     0.000     2.275     0.000     0.000     0.000     0.000     0.000     0.000     0.000     0.000     0.000     0.000     0.0000.0000E+00     0.000     0.000     0.000     0.000     0.000     0.000     0.000     0.000     0.000     0.000     0.000     0.000     0.0000.0000E+00     0.000     0.000     2.378    27.846
WWHT   74 000060006    6    0    3    15.631     0.000     0.021     0.000     0.000     0.000     0.000     0.0000.9023E+04     0.000     1.983     0.000     0.000     0.000   194.779     0.000     0.000     0.000     0.000     0.000     0.000     0.0000.0000E+00     0.000     0.000     0.000     0.000     0.000     0.000     0.000     0.000     0.000     0.000     0.000     0.000     0.0000.0000E+00     0.000     0.000     2.378    27.955
AGRL   75 000060007    6    0    3    51.756     0.001     0.016     0.000     0.001     0.000     0.000     0.0000.2988E+05    12.250     0.552     1.410     2.232     0.280     0.442     0.000     0.000     0.000     0.000     0.000     0.000     0.0000.0000E+00     0.000     0.000     0.000     0.000     0.000     0.000     0.000     0.000     0.000     0.000     0.000     0.000     0.0000.0000E+00     0.000     0.000     0.223    33.866
AGRL   76 000060008    6    0    3     4.906     0.000     0.118     0.000     0.000     0.000     0.118     0.0000.6817E+04     0.000     0.822     0.000     0.000     0.000     0.000     0.000     0.000     0.000     0.000     0.000     0.000     0.0000.0000E+00     0.000     0.000     0.000     0.000     0.000     0.000     0.000     0.000     0.000     0.000     0.000     0.000     0.0000.0000E+00     0.000     0.000     0.217    33.795
AGRL   77 000060009    6    0    3    31.692     0.000     0.017     0.000     0.000     0.000     0.000     0.0000.1483E+05     0.219     0.886     0.026     0.029     0.012     1.991     0.000     0.000     0.000     0.000     0.000     0.000     0.0000.0000E+00     0.000     0.000     0.000     0.000     0.000     0.000     0.000     0.000     0.000     0.000     0.000     0.000     0.0000.0000E+00     0.000     0.000     0.217    34.472
AGRL   78 000060010    6    0    3     2.351     0.000     0.158     0.000     0.000     0.000     0.158     0.0000.3266E+04     0.000     0.719     0.000     0.000     0.000     0.000     0.000     0.000     0.000     0.000     0.000     0.000     0.0000.0000E+00     0.000     0.000     0.000     0.000     0.000     0.000     0.000     0.000     0.000     0.000     0.000     0.000     0.0000.0000E+00     0.000     0.000     0.150    30.169
AGRL   79 000060011    6    0    3    14.934     0.000     0.021     0.000     0.000     0.000     0.000     0.0000.8872E+04     0.000     0.908     0.000     0.000     0.000   196.735     0.000     0.000     0.000     0.000     0.000     0.000     0.0000.0000E+00     0.000     0.000     0.000     0.000     0.000     0.000     0.000     0.000     0.000     0.000     0.000     0.000     0.0000.0000E+00     0.000     0.000     0.150    30.577
RNGB   80 000060012    6    0    3     5.827     0.000     0.114     0.000     0.000     0.000     0.114     0.0000.8097E+04     0.000     0.451     0.000     0.000     0.000     0.000     0.000     0.000     0.000     0.000     0.000     0.000     0.0000.0000E+00     0.000     0.000     0.000     0.000     0.000     0.000     0.000     0.000     0.000     0.000     0.000     0.000     0.0000.0000E+00     0.000     0.000     0.273    32.968
RNGB   81 000060013    6    0    3    41.846     0.000     0.014     0.000     0.001     0.000     0.000     0.0000.1676E+05     0.000     0.730     0.000     0.000     0.000    22.683     0.000     0.000     0.000     0.000     0.000     0.000     0.0000.0000E+00     0.000     0.000     0.000     0.000     0.000     0.000     0.000     0.000     0.000     0.000     0.000     0.000     0.0000.0000E+00     0.000     0.000     0.273    33.893
RNGB   82 000060014    6    0    3     2.614     0.000     0.123     0.000     0.000     0.000     0.123     0.0000.3632E+04     0.000     0.841     0.000     0.000     0.000     0.000     0.000     0.000     0.000     0.000     0.000     0.000     0.0000.0000E+00     0.000     0.000     0.000     0.000     0.000     0.000     0.000     0.000     0.000     0.000     0.000     0.000     0.0000.0000E+00     0.000     0.000     0.273    33.284
RNGB   83 000060015    6    0    3     8.374     0.000     0.018     0.000     0.000     0.000     0.000     0.0000.4172E+04     0.000     1.026     0.000     0.000     0.000   183.893     0.000     0.000     0.000     0.000     0.000     0.000     0.0000.0000E+00     0.000     0.000     0.000     0.000     0.000     0.000     0.000     0.000     0.000     0.000     0.000     0.000     0.0000.0000E+00     0.000     0.000     0.273    33.886
RNGB   84 000060016    6    0    3    14.549     0.001     0.089     0.000     0.001     0.000     0.089     0.0000.2022E+05     0.000     0.962     0.000     0.000     0.000     0.000     0.000     0.000     0.000     0.000     0.000     0.000     0.0000.0000E+00     0.000     0.000     0.000     0.000     0.000     0.000     0.000     0.000     0.000     0.000     0.000     0.000     0.0000.0000E+00     0.000     0.000     0.217    27.297
WWHT   69 000060001    6    0    4    30.526     0.001     0.017     0.000     0.001     0.000     0.000     0.0000.1173E+05     0.000     2.891     0.000     0.000     0.000    21.364     0.000     0.000     0.000     0.000     0.000     0.000     0.0000.0000E+00     0.000     0.000     0.000     0.000     0.000     0.000     0.000     0.000     0.000     0.000     0.000     0.000     0.0000.0000E+00     0.000     0.000    40.489    28.417
WWHT   70 000060002    6    0    4    46.551     0.001     0.021     0.000     0.001     0.000     0.000     0.0000.2099E+05     0.000     1.862     0.000     0.000     0.000    18.479     0.000     0.000     0.000     0.000     0.000     0.000     0.0000.0000E+00     0.000     0.000     0.000     0.000     0.000     0.000     0.000     0.000     0.000     0.000     0.000     0.000     0.0000.0000E+00     0.000     0.000    40.504    28.658
WWHT   71 000060003    6    0    4    12.233     0.001     0.419     0.000     0.001     0.000     0.419     0.0000.1700E+05     0.000     3.040     0.000     0.000     0.000     0.000     0.000     0.000     0.000     0.000     0.000     0.000     0.0000.0000E+00     0.000     0.000     0.000     0.000     0.000     0.000     0.000     0.000     0.000     0.000     0.000     0.000     0.0000.0000E+00     0.000     0.000    37.500    22.913
WWHT   72 000060004    6    0    4     1.455     0.000     4.398     0.000     0.000     0.000     4.398     0.0000.2021E+04     0.000     2.032     0.000     0.000     0.000     0.000     0.000     0.000     0.000     0.000     0.000     0.000     0.0000.0000E+00     0.000     0.000     0.000     0.000     0.000     0.000     0.000     0.000     0.000     0.000     0.000     0.000     0.0000.0000E+00     0.000     0.000    37.468    20.995
WWHT   73 000060005    6    0    4     2.714     0.000     0.554     0.000     0.000     0.000     0.554     0.0000.3772E+04     0.000     4.939     0.000     0.000     0.000     0.000     0.000     0.000     0.000     0.000     0.000     0.000     0.0000.0000E+00     0.000     0.000     0.000     0.000     0.000     0.000     0.000     0.000     0.000     0.000     0.000     0.000     0.0000.0000E+00     0.000     0.000    37.139    29.294
WWHT   74 000060006    6    0    4    15.631     0.001     0.030     0.000     0.000     0.000     0.000     0.0000.9495E+04     0.000     2.378     0.000     0.000     0.000   198.378     0.000     0.000     0.000     0.000     0.000     0.000     0.0000.0000E+00     0.000     0.000     0.000     0.000     0.000     0.000     0.000     0.000     0.000     0.000     0.000     0.000     0.0000.0000E+00     0.000     0.000    37.497    29.205
AGRL   75 000060007    6    0    4    51.756     0.002     0.284     0.108     0.001     0.000     0.000     0.0000.4461E+05    22.787     0.396     2.714     4.304     0.462     0.349     0.000     0.000     0.000     0.000     0.000     0.000     0.0000.0000E+00     0.000     0.000     0.000     0.000     0.000     0.000     0.000     0.000     0.000     0.000     0.000     0.000     0.0000.0000E+00     0.000     0.785     0.854    53.624
AGRL   76 000060008    6    0    4     4.906     0.000     0.434     0.005     0.000     0.000     0.434     0.0000.6817E+04     0.498     0.714     0.061     0.069     0.022     1.463     0.000     0.000     0.000     0.000     0.000     0.000     0.0000.0000E+00     0.000     0.000     0.000     0.000     0.000     0.000     0.000     0.000     0.000     0.000     0.000     0.000     0.0000.0000E+00     0.000     0.020     0.854    52.060
AGRL   77 000060009    6    0    4    31.692     0.001     0.087     0.026     0.001     0.000     0.000     0.0000.1759E+05     9.016     0.764     1.101     1.251     0.201     0.517     0.000     0.000     0.000     0.000     0.000     0.000     0.0000.0000E+00     0.000     0.000     0.000     0.000     0.000     0.000     0.000     0.000     0.000     0.000     0.000     0.000     0.0000.0000E+00     0.000     0.185     0.854    53.091
AGRL   78 000060010    6    0    4     2.351     0.000     0.649     0.000     0.000     0.000     0.649     0.0000.3266E+04     0.000     0.663     0.000     0.000     0.000     0.000     0.000     0.000     0.000     0.000     0.000     0.000     0.0000.0000E+00     0.000     0.000     0.000     0.000     0.000     0.000     0.000     0.000     0.000     0.000     0.000     0.000     0.0000.0000E+00     0.000     0.000     0.697    48.085
AGRL   79 000060011    6    0    4    14.934     0.001     0.033     0.000     0.000     0.000     0.000     0.0000.9373E+04     0.000     0.883     0.000     0.000     0.000   200.656     0.000     0.000     0.000     0.000     0.000     0.000     0.0000.0000E+00     0.000     0.000     0.000     0.000     0.000     0.000     0.000     0.000     0.000     0.000     0.000     0.000     0.0000.0000E+00     0.000     0.000     0.697    48.493
RNGB   80 000060012    6    0    4     5.827     0.000     0.429     0.000     0.000     0.000     0.430     0.0000.8097E+04     0.000     0.398     0.000     0.000     0.000     0.000     0.000     0.000     0.000     0.000     0.000     0.000     0.0000.0000E+00     0.000     0.000     0.000     0.000     0.000     0.000     0.000     0.000     0.000     0.000     0.000     0.000     0.0000.0000E+00     0.000     0.000     1.486    52.559
RNGB   81 000060013    6    0    4    41.846     0.001     0.023     0.000     0.001     0.000     0.000     0.0000.1771E+05     0.000     0.711     0.000     0.000     0.000    22.932     0.000     0.000     0.000     0.000     0.000     0.000     0.0000.0000E+00     0.000     0.000     0.000     0.000     0.000     0.000     0.000     0.000     0.000     0.000     0.000     0.000     0.0000.0000E+00     0.000     0.000     1.486    53.339
RNGB   82 000060014    6    0    4     2.614     0.000     0.443     0.000     0.000     0.000     0.443     0.0000.3632E+04     0.000     0.723     0.000     0.000     0.000     0.000     0.000     0.000     0.000     0.000     0.000     0.000     0.0000.0000E+00     0.000     0.000     0.000     0.000     0.000     0.000     0.000     0.000     0.000     0.000     0.000     0.000     0.0000.0000E+00     0.000     0.000     1.486    51.066
RNGB   83 000060015    6    0    4     8.374     0.000     0.027     0.000     0.000     0.000     0.000     0.0000.4401E+04     0.000     0.989     0.000     0.000     0.000   187.459     0.000     0.000     0.000     0.000     0.000     0.000     0.0000.0000E+00     0.000     0.000     0.000     0.000     0.000     0.000     0.000     0.000     0.000     0.000     0.000     0.000     0.0000.0000E+00     0.000     0.000     1.486    52.032
RNGB   84 000060016    6    0    4    14.549     0.001     0.416     0.000     0.001     0.000     0.416     0.0000.2022E+05     0.000     1.037     0.000     0.000     0.000     0.000     0.000     0.000     0.000     0.000     0.000     0.000     0.0000.0000E+00     0.000     0.000     0.000     0.000     0.000     0.000     0.000     0.000     0.000     0.000     0.000     0.000     0.0000.0000E+00     0.000     0.000     1.279    42.346
WWHT   69 000060001    6    0    5    30.526     0.001     0.026     0.000     0.001     0.000     0.000     0.0000.1253E+05     0.000     2.853     0.000     0.000     0.000    21.663     0.000     0.000     0.000     0.000     0.000     0.000     0.0000.0000E+00     0.000     0.000     0.000     0.000     0.000     0.000     0.000     0.000     0.000     0.000     0.000     0.000     0.0000.0000E+00     0.000     0.000    56.477    15.617
WWHT   70 000060002    6    0    5    46.551     0.001     0.031     0.000     0.001     0.000     0.000     0.0000.2246E+05     0.000     1.880     0.000     0.000     0.000    18.771     0.000     0.000     0.000     0.000     0.000     0.000     0.0000.0000E+00     0.000     0.000     0.000     0.000     0.000     0.000     0.000     0.000     0.000     0.000     0.000     0.000     0.0000.0000E+00     0.000     0.000    56.377    16.932
WWHT   71 000060003    6    0    5    12.233     0.001     0.365     0.000     0.001     0.000     0.365     0.0000.1700E+05     0.000     2.342     0.000     0.000     0.000     0.000     0.000     0.000     0.000     0.000     0.000     0.000     0.0000.0000E+00     0.000     0.000     0.000     0.000     0.000     0.000     0.000     0.000     0.000     0.000     0.000     0.000     0.0000.0000E+00     0.000     0.000    53.330    15.715
WWHT   72 000060004    6    0    5     1.455     0.000     3.453     0.000     0.000     0.000     3.453     0.0000.2021E+04     0.000     0.260     0.000     0.000     0.000     0.000     0.000     0.000     0.000     0.000     0.000     0.000     0.0000.0000E+00     0.000     0.000     0.000     0.000     0.000     0.000     0.000     0.000     0.000     0.000     0.000     0.000     0.0000.0000E+00     0.000     0.000    52.051    14.757
WWHT   73 000060005    6    0    5     2.714     0.000     0.666     0.000     0.000     0.000     0.666     0.0000.3772E+04     0.000     3.353     0.000     0.000     0.000     0.000     0.000     0.000     0.000     0.000     0.000     0.000     0.0000.0000E+00     0.000     0.000     0.000     0.000     0.000     0.000     0.000     0.000     0.000     0.000     0.000     0.000     0.0000.0000E+00     0.000     0.000    52.396    19.544
WWHT   74 000060006    6    0    5    15.631     0.000     0.046     0.000     0.000     0.000     0.000     0.0000.1021E+05     0.000     2.490     0.000     0.000     0.000   203.626     0.000     0.000     0.000     0.000     0.000     0.000     0.0000.0000E+00     0.000     0.000     0.000     0.000     0.000     0.000     0.000     0.000     0.000     0.000     0.000     0.000     0.0000.0000E+00     0.000     0.000    53.225    19.475
AGRL   75 000060007    6    0    5    51.756     0.002     0.107     0.019     0.002     0.000     0.000     0.0000.5014E+05    22.429     0.404     2.646     4.195     0.453     0.352     0.000     0.000     0.000     0.000     0.000     0.000     0.0000.0000E+00     0.000     0.000     0.000     0.000     0.000     0.000     0.000     0.000     0.000     0.000     0.000     0.000     0.0000.0000E+00     0.000     0.201     0.873    51.022
AGRL   76 000060008    6    0    5     4.906     0.000     0.528     0.003     0.000     0.000     0.528     0.0000.6817E+04     0.583     0.637     0.071     0.081     0.025     1.382     0.000     0.000     0.000     0.000     0.000     0.000     0.0000.0000E+00     0.000     0.000     0.000     0.000     0.000     0.000     0.000     0.000     0.000     0.000     0.000     0.000     0.0000.0000E+00     0.000     0.013     0.873    51.766
AGRL   77 000060009    6    0    5    31.692     0.001     0.077     0.011     0.001     0.000     0.000     0.0000.2003E+05    11.440     0.701     1.388     1.576     0.240     0.475     0.000     0.000     0.000     0.000     0.000     0.000     0.0000.0000E+00     0.000     0.000     0.000     0.000     0.000     0.000     0.000     0.000     0.000     0.000     0.000     0.000     0.0000.0000E+00     0.000     0.108     0.873    52.511
AGRL   78 000060010    6    0    5     2.351     0.000     0.810     0.000     0.000     0.000     0.810     0.0000.3266E+04     0.000     0.594     0.000     0.000     0.000     0.000     0.000     0.000     0.000     0.000     0.000     0.000     0.0000.0000E+00     0.000     0.000     0.000     0.000     0.000     0.000     0.000     0.000     0.000     0.000     0.000     0.000     0.0000.0000E+00     0.000     0.000     0.689    45.645
AGRL   79 000060011    6    0    5    14.934     0.000     0.055     0.000     0.000     0.000     0.000     0.0000.1020E+05     0.000     0.848     0.000     0.000     0.000   206.860     0.000     0.000     0.000     0.000     0.000     0.000     0.0000.0000E+00     0.000     0.000     0.000     0.000     0.000     0.000     0.000     0.000     0.000     0.000     0.000     0.000     0.0000.0000E+00     0.000     0.000     0.689    46.162
RNGB   80 000060012    6    0    5     5.827     0.000     0.571     0.000     0.000     0.000     0.571     0.0000.8097E+04     0.000     0.579     0.000     0.000     0.000     0.000     0.000     0.000     0.000     0.000     0.000     0.000     0.0000.0000E+00     0.000     0.000     0.000     0.000     0.000     0.000     0.000     0.000     0.000     0.000     0.000     0.000     0.0000.0000E+00     0.000     0.000     1.733    50.507
RNGB   81 000060013    6    0    5    41.846     0.001     0.041     0.000     0.001     0.000     0.000     0.0000.1944E+05     0.000     0.762     0.000     0.000     0.000    23.499     0.000     0.000     0.000     0.000     0.000     0.000     0.0000.0000E+00     0.000     0.000     0.000     0.000     0.000     0.000     0.000     0.000     0.000     0.000     0.000     0.000     0.0000.0000E+00     0.000     0.000     1.733    50.590
RNGB   82 000060014    6    0    5     2.614     0.000     0.541     0.000     0.000     0.000     0.541     0.0000.3632E+04     0.000     0.640     0.000     0.000     0.000     0.000     0.000     0.000     0.000     0.000     0.000     0.000     0.0000.0000E+00     0.000     0.000     0.000     0.000     0.000     0.000     0.000     0.000     0.000     0.000     0.000     0.000     0.0000.0000E+00     0.000     0.000     1.733    50.594
RNGB   83 000060015    6    0    5     8.374     0.000     0.044     0.000     0.000     0.000     0.000     0.0000.4770E+04     0.000     0.946     0.000     0.000     0.000   192.971     0.000     0.000     0.000     0.000     0.000     0.000     0.0000.0000E+00     0.000     0.000     0.000     0.000     0.000     0.000     0.000     0.000     0.000     0.000     0.000     0.000     0.0000.0000E+00     0.000     0.000     1.733    51.228
RNGB   84 000060016    6    0    5    14.549     0.001     0.349     0.000     0.001     0.000     0.349     0.0000.2022E+05     0.000     1.167     0.000     0.000     0.000     0.000     0.000     0.000     0.000     0.000     0.000     0.000     0.0000.0000E+00     0.000     0.000     0.000     0.000     0.000     0.000     0.000     0.000     0.000     0.000     0.000     0.000     0.0000.0000E+00     0.000     0.000     1.487    41.078
WWHT   69 000060001    6    0    6    30.526     0.001     0.039     0.000     0.001     0.000     0.000     0.0000.1373E+05     0.000     2.629     0.000     0.000     0.000    22.186     0.000     0.000     0.000     0.000     0.000     0.000     0.0000.0000E+00     0.000     0.000     0.000     0.000     0.000     0.000     0.000     0.000     0.000     0.000     0.000     0.000     0.0000.0000E+00     0.000     0.000    73.596    17.647
WWHT   70 000060002    6    0    6    46.551     0.001     0.047     0.000     0.001     0.000     0.000     0.0000.2466E+05     0.000     1.737     0.000     0.000     0.000    19.257     0.000     0.000     0.000     0.000     0.000     0.000     0.0000.0000E+00     0.000     0.000     0.000     0.000     0.000     0.000     0.000     0.000     0.000     0.000     0.000     0.000     0.0000.0000E+00     0.000     0.000    73.427    19.061
WWHT   71 000060003    6    0    6    12.233     0.001     0.523     0.000     0.001     0.000     0.523     0.0000.1700E+05     0.000     1.615     0.000     0.000     0.000     0.000     0.000     0.000     0.000     0.000     0.000     0.000     0.0000.0000E+00     0.000     0.000     0.000     0.000     0.000     0.000     0.000     0.000     0.000     0.000     0.000     0.000     0.0000.0000E+00     0.000     0.000    70.949    15.568
WWHT   72 000060004    6    0    6     1.455     0.000     5.154     0.000     0.000     0.000     5.154     0.0000.2021E+04     0.000     0.036     0.000     0.000     0.000     0.000     0.000     0.000     0.000     0.000     0.000     0.000     0.0000.0000E+00     0.000     0.000     0.000     0.000     0.000     0.000     0.000     0.000     0.000     0.000     0.000     0.000     0.0000.0000E+00     0.000     0.000    59.410    13.998
WWHT   73 000060005    6    0    6     2.714     0.000     0.983     0.000     0.000     0.000     0.983     0.0000.3772E+04     0.000     1.683     0.000     0.000     0.000     0.000     0.000     0.000     0.000     0.000     0.000     0.000     0.0000.0000E+00     0.000     0.000     0.000     0.000     0.000     0.000     0.000     0.000     0.000     0.000     0.000     0.000     0.0000.0000E+00     0.000     0.000    70.333    19.628
WWHT   74 000060006    6    0    6    15.631     0.001     0.069     0.000     0.001     0.000     0.000     0.0000.1128E+05     0.000     2.331     0.000     0.000     0.000   211.077     0.000     0.000     0.000     0.000     0.000     0.000     0.0000.0000E+00     0.000     0.000     0.000     0.000     0.000     0.000     0.000     0.000     0.000     0.000     0.000     0.000     0.0000.0000E+00     0.000     0.000    71.089    19.578
AGRL   75 000060007    6    0    6    51.756     0.003     0.541     0.322     0.003     0.000     0.120     0.0000.7192E+05    35.850     0.338     4.276     6.775     0.652     0.296     0.000     0.000     0.000     0.000     0.000     0.000     0.0000.0000E+00     0.000     0.000     0.000     0.000     0.000     0.000     0.000     0.000     0.000     0.000     0.000     0.000     0.0000.0000E+00     0.000     1.430     1.071    57.639
AGRL   76 000060008    6    0    6     4.906     0.000     1.212     0.668     0.000     0.000     1.212     0.0060.6817E+04    25.823     1.271     3.158     3.578     0.447     0.354     0.000     0.000     0.000     0.000     0.000     0.000     0.0000.0000E+00     0.000     0.000     0.000     0.000     0.000     0.000     0.000     0.000     0.000     0.000     0.000     0.000     0.0000.0000E+00     0.000     0.905     1.071    60.585
AGRL   77 000060009    6    0    6    31.692     0.002     0.540     0.387     0.002     0.000     0.000     0.0000.3714E+05    58.188     0.529     7.065     8.007     0.825     0.265     0.000     0.000     0.000     0.000     0.000     0.000     0.0000.0000E+00     0.000     0.000     0.000     0.000     0.000     0.000     0.000     0.000     0.000     0.000     0.000     0.000     0.0000.0000E+00     0.000     1.395     1.071    60.660
AGRL   78 000060010    6    0    6     2.351     0.000     1.153     0.015     0.000     0.000     1.153     0.0000.3266E+04     0.375     0.511     0.046     0.073     0.021     1.511     0.000     0.000     0.000     0.000     0.000     0.000     0.0000.0000E+00     0.000     0.000     0.000     0.000     0.000     0.000     0.000     0.000     0.000     0.000     0.000     0.000     0.0000.0000E+00     0.000     0.025     0.906    51.897
AGRL   79 000060011    6    0    6    14.934     0.001     0.166     0.060     0.001     0.000     0.000     0.0000.1268E+05     7.022     0.718     0.857     1.360     0.192     0.528     0.000     0.000     0.000     0.000     0.000     0.000     0.0000.0000E+00     0.000     0.000     0.000     0.000     0.000     0.000     0.000     0.000     0.000     0.000     0.000     0.000     0.0000.0000E+00     0.000     0.257     0.906    53.228
RNGB   80 000060012    6    0    6     5.827     0.000     1.028     0.000     0.000     0.000     1.028     0.0000.8097E+04     0.000     1.403     0.000     0.000     0.000     0.000     0.000     0.000     0.000     0.000     0.000     0.000     0.0000.0000E+00     0.000     0.000     0.000     0.000     0.000     0.000     0.000     0.000     0.000     0.000     0.000     0.000     0.0000.0000E+00     0.000     0.000     3.518    56.203
RNGB   81 000060013    6    0    6    41.846     0.001     0.068     0.000     0.001     0.000     0.000     0.0000.2229E+05     0.000     0.904     0.000     0.000     0.000    24.479     0.000     0.000     0.000     0.000     0.000     0.000     0.0000.0000E+00     0.000     0.000     0.000     0.000     0.000     0.000     0.000     0.000     0.000     0.000     0.000     0.000     0.0000.0000E+00     0.000     0.000     3.518    56.270
RNGB   82 000060014    6    0    6     2.614     0.000     0.816     0.000     0.000     0.000     0.816     0.0000.3632E+04     0.000     0.706     0.000     0.000     0.000     0.000     0.000     0.000     0.000     0.000     0.000     0.000     0.0000.0000E+00     0.000     0.000     0.000     0.000     0.000     0.000     0.000     0.000     0.000     0.000     0.000     0.000     0.0000.0000E+00     0.000     0.000     3.518    59.087
RNGB   83 000060015    6    0    6     8.374     0.000     0.075     0.000     0.000     0.000     0.000     0.0000.5397E+04     0.000     1.024     0.000     0.000     0.000   201.723     0.000     0.000     0.000     0.000     0.000     0.000     0.0000.0000E+00     0.000     0.000     0.000     0.000     0.000     0.000     0.000     0.000     0.000     0.000     0.000     0.000     0.0000.0000E+00     0.000     0.000     3.518    59.250
RNGB   84 000060016    6    0    6    14.549     0.001     0.514     0.000     0.001     0.000     0.515     0.0000.2022E+05     0.000     1.582     0.000     0.000     0.000     0.000     0.000     0.000     0.000     0.000     0.000     0.000     0.0000.0000E+00     0.000     0.000     0.000     0.000     0.000     0.000     0.000     0.000     0.000     0.000     0.000     0.000     0.0000.0000E+00     0.000     0.000     3.098    42.945
WWHT   69 000060001    6    0    7    30.526     0.000     0.017     0.000     0.001     0.000     0.000     0.0000.1423E+05     0.000     2.528     0.000     0.000     0.000    22.270     0.000     0.000     0.000     0.000     0.000     0.000     0.0000.0000E+00     0.000     0.000     0.000     0.000     0.000     0.000     0.000     0.000     0.000     0.000     0.000     0.000     0.0000.0000E+00     0.000     0.000    59.179     4.774
WWHT   70 000060002    6    0    7    46.551     0.000     0.021     0.000     0.002     0.000     0.000     0.0000.2555E+05     0.000     1.668     0.000     0.000     0.000    19.349     0.000     0.000     0.000     0.000     0.000     0.000     0.0000.0000E+00     0.000     0.000     0.000     0.000     0.000     0.000     0.000     0.000     0.000     0.000     0.000     0.000     0.0000.0000E+00     0.000     0.000    53.793     5.035
WWHT   71 000060003    6    0    7    12.233     0.000     0.001     0.000     0.001     0.000     0.000     0.0000.1699E+05     0.000     1.608     0.000     0.000     0.000     0.000     0.000     0.000     0.000     0.000     0.000     0.000     0.0000.0000E+00     0.000     0.000     0.000     0.000     0.000     0.000     0.000     0.000     0.000     0.000     0.000     0.000     0.0000.0000E+00     0.000     0.000    71.297     2.069
WWHT   72 000060004    6    0    7     1.455     0.000     0.000     0.000     0.000     0.000     0.000     0.0000.2021E+04     0.000     0.036     0.000     0.000     0.000     0.000     0.000     0.000     0.000     0.000     0.000     0.000     0.0000.0000E+00     0.000     0.000     0.000     0.000     0.000     0.000     0.000     0.000     0.000     0.000     0.000     0.000     0.0000.0000E+00     0.000     0.000     8.496     1.433
WWHT   73 000060005    6    0    7     2.714     0.000     0.046     0.000     0.000     0.000     0.046     0.0000.3772E+04     0.000     1.627     0.000     0.000     0.000     0.000     0.000     0.000     0.000     0.000     0.000     0.000     0.0000.0000E+00     0.000     0.000     0.000     0.000     0.000     0.000     0.000     0.000     0.000     0.000     0.000     0.000     0.0000.0000E+00     0.000     0.000    42.819     2.921
WWHT   74 000060006    6    0    7    15.631     0.000     0.030     0.000     0.001     0.000     0.000     0.0000.1174E+05     0.000     2.260     0.000     0.000     0.000   214.117     0.000     0.000     0.000     0.000     0.000     0.000     0.0000.0000E+00     0.000     0.000     0.000     0.000     0.000     0.000     0.000     0.000     0.000     0.000     0.000     0.000     0.0000.0000E+00     0.000     0.000    54.557     2.965
AGRL   75 000060007    6    0    7    51.756     0.000     0.028     0.000     0.005     0.000     0.023     0.0000.7192E+05    34.689     0.449     4.083     6.469     0.629     0.301     0.000     0.000     0.000     0.000     0.000     0.000     0.0000.0000E+00     0.000     0.000     0.000     0.000     0.000     0.000     0.000     0.000     0.000     0.000     0.000     0.000     0.0000.0000E+00     0.000     0.000     1.156    23.355
AGRL   76 000060008    6    0    7     4.906     0.000     0.041     0.000     0.001     0.000     0.040     0.0000.6817E+04    25.040     1.288     3.058     3.463     0.437     0.358     0.000     0.000     0.000     0.000     0.000     0.000     0.0000.0000E+00     0.000     0.000     0.000     0.000     0.000     0.000     0.000     0.000     0.000     0.000     0.000     0.000     0.0000.0000E+00     0.000     0.000     1.446    27.153
AGRL   77 000060009    6    0    7    31.692     0.000     0.033     0.000     0.003     0.000     0.000     0.0000.3811E+05    56.123     0.575     6.756     7.656     0.798     0.269     0.000     0.000     0.000     0.000     0.000     0.000     0.0000.0000E+00     0.000     0.000     0.000     0.000     0.000     0.000     0.000     0.000     0.000     0.000     0.000     0.000     0.0000.0000E+00     0.000     0.000     1.446    27.191
AGRL   78 000060010    6    0    7     2.351     0.000     0.051     0.000     0.000     0.000     0.050     0.0000.3266E+04     0.362     0.506     0.044     0.070     0.020     1.532     0.000     0.000     0.000     0.000     0.000     0.000     0.0000.0000E+00     0.000     0.000     0.000     0.000     0.000     0.000     0.000     0.000     0.000     0.000     0.000     0.000     0.0000.0000E+00     0.000     0.000     1.234    20.026
AGRL   79 000060011    6    0    7    14.934     0.000     0.035     0.000     0.001     0.000     0.000     0.0000.1319E+05     6.714     0.702     0.816     1.294     0.185     0.537     0.000     0.000     0.000     0.000     0.000     0.000     0.0000.0000E+00     0.000     0.000     0.000     0.000     0.000     0.000     0.000     0.000     0.000     0.000     0.000     0.000     0.0000.0000E+00     0.000     0.000     1.234    21.652
RNGB   80 000060012    6    0    7     5.827     0.000     0.043     0.000     0.001     0.000     0.043     0.0000.8097E+04     0.000     1.413     0.000     0.000     0.000     0.000     0.000     0.000     0.000     0.000     0.000     0.000     0.0000.0000E+00     0.000     0.000     0.000     0.000     0.000     0.000     0.000     0.000     0.000     0.000     0.000     0.000     0.0000.0000E+00     0.000     0.000     5.535    21.505
RNGB   81 000060013    6    0    7    41.846     0.000     0.029     0.000     0.002     0.000     0.000     0.0000.2345E+05     0.000     0.946     0.000     0.000     0.000    24.724     0.000     0.000     0.000     0.000     0.000     0.000     0.0000.0000E+00     0.000     0.000     0.000     0.000     0.000     0.000     0.000     0.000     0.000     0.000     0.000     0.000     0.0000.0000E+00     0.000     0.000     5.535    21.538
RNGB   82 000060014    6    0    7     2.614     0.000     0.037     0.000     0.000     0.000     0.037     0.0000.3632E+04     0.000     0.707     0.000     0.000     0.000     0.000     0.000     0.000     0.000     0.000     0.000     0.000     0.0000.0000E+00     0.000     0.000     0.000     0.000     0.000     0.000     0.000     0.000     0.000     0.000     0.000     0.000     0.0000.0000E+00     0.000     0.000     5.535    25.176
RNGB   83 000060015    6    0    7     8.374     0.000     0.033     0.000     0.000     0.000     0.000     0.0000.5668E+04     0.000     1.057     0.000     0.000     0.000   205.312     0.000     0.000     0.000     0.000     0.000     0.000     0.0000.0000E+00     0.000     0.000     0.000     0.000     0.000     0.000     0.000     0.000     0.000     0.000     0.000     0.000     0.0000.0000E+00     0.000     0.000     5.535    25.215
RNGB   84 000060016    6    0    7    14.549     0.000     0.000     0.000     0.001     0.000     0.000     0.0000.2020E+05     0.000     1.824     0.000     0.000     0.000     0.000     0.000     0.000     0.000     0.000     0.000     0.000     0.0000.0000E+00     0.000     0.000     0.000     0.000     0.000     0.000     0.000     0.000     0.000     0.000     0.000     0.000     0.0000.0000E+00     0.000     0.000     4.907    11.839
WWHT   69 000060001    6    0    8    30.526     0.000     0.006     0.000     0.001     0.000     0.000     0.0000.1439E+05     0.000     2.478     0.000     0.000     0.000    22.170     0.000     0.000     0.000     0.000     0.000     0.000     0.0000.0000E+00     0.000     0.000     0.000     0.000     0.000     0.000     0.000     0.000     0.000     0.000     0.000     0.000     0.0000.0000E+00     0.000     0.000     4.198     6.667
WWHT   70 000060002    6    0    8    46.551     0.000     0.008     0.000     0.002     0.000     0.000     0.0000.2583E+05     0.000     1.630     0.000     0.000     0.000    19.279     0.000     0.000     0.000     0.000     0.000     0.000     0.0000.0000E+00     0.000     0.000     0.000     0.000     0.000     0.000     0.000     0.000     0.000     0.000     0.000     0.000     0.0000.0000E+00     0.000     0.000     4.195     8.246
WWHT   71 000060003    6    0    8    12.233     0.000     0.015     0.000     0.001     0.000     0.013     0.0000.1700E+05     0.000     1.585     0.000     0.000     0.000     0.000     0.000     0.000     0.000     0.000     0.000     0.000     0.0000.0000E+00     0.000     0.000     0.000     0.000     0.000     0.000     0.000     0.000     0.000     0.000     0.000     0.000     0.0000.0000E+00     0.000     0.000     7.124     6.129
WWHT   72 000060004    6    0    8     1.455     0.000     0.183     0.000     0.000     0.000     0.182     0.0000.2021E+04     0.000     0.035     0.000     0.000     0.000     0.000     0.000     0.000     0.000     0.000     0.000     0.000     0.0000.0000E+00     0.000     0.000     0.000     0.000     0.000     0.000     0.000     0.000     0.000     0.000     0.000     0.000     0.0000.0000E+00     0.000     0.000     1.679     6.484
WWHT   73 000060005    6    0    8     2.714     0.000     0.010     0.000     0.000     0.000     0.010     0.0000.3772E+04     0.000     1.614     0.000     0.000     0.000     0.000     0.000     0.000     0.000     0.000     0.000     0.000     0.0000.0000E+00     0.000     0.000     0.000     0.000     0.000     0.000     0.000     0.000     0.000     0.000     0.000     0.000     0.0000.0000E+00     0.000     0.000     5.246     7.687
WWHT   74 000060006    6    0    8    15.631     0.000     0.011     0.000     0.001     0.000     0.000     0.0000.1190E+05     0.000     2.227     0.000     0.000     0.000   215.155     0.000     0.000     0.000     0.000     0.000     0.000     0.0000.0000E+00     0.000     0.000     0.000     0.000     0.000     0.000     0.000     0.000     0.000     0.000     0.000     0.000     0.0000.0000E+00     0.000     0.000     6.215     7.634
AGRL   75 000060007    6    0    8    51.756     0.000     0.010     0.000     0.004     0.000     0.006     0.0000.7192E+05    33.979     0.470     3.947     6.253     0.613     0.305     0.000     0.000     0.000     0.000     0.000     0.000     0.0000.0000E+00     0.000     0.000     0.000     0.000     0.000     0.000     0.000     0.000     0.000     0.000     0.000     0.000     0.0000.0000E+00     0.000     0.000     0.130    18.583
AGRL   76 000060008    6    0    8     4.906     0.000     0.010     0.000     0.000     0.000     0.010     0.0000.6817E+04    24.815     1.279     3.025     3.427     0.433     0.359     0.000     0.000     0.000     0.000     0.000     0.000     0.0000.0000E+00     0.000     0.000     0.000     0.000     0.000     0.000     0.000     0.000     0.000     0.000     0.000     0.000     0.0000.0000E+00     0.000     0.000     0.546    20.373
AGRL   77 000060009    6    0    8    31.692     0.000     0.012     0.000     0.002     0.000     0.000     0.0000.3841E+05    55.092     0.586     6.574     7.451     0.781     0.272     0.000     0.000     0.000     0.000     0.000     0.000     0.0000.0000E+00     0.000     0.000     0.000     0.000     0.000     0.000     0.000     0.000     0.000     0.000     0.000     0.000     0.0000.0000E+00     0.000     0.000     0.551    20.389
AGRL   78 000060010    6    0    8     2.351     0.000     0.010     0.000     0.000     0.000     0.010     0.0000.3266E+04     0.359     0.502     0.044     0.070     0.020     1.537     0.000     0.000     0.000     0.000     0.000     0.000     0.0000.0000E+00     0.000     0.000     0.000     0.000     0.000     0.000     0.000     0.000     0.000     0.000     0.000     0.000     0.0000.0000E+00     0.000     0.000     1.214    18.843
AGRL   79 000060011    6    0    8    14.934     0.000     0.013     0.000     0.001     0.000     0.000     0.0000.1336E+05     6.589     0.695     0.797     1.265     0.182     0.542     0.000     0.000     0.000     0.000     0.000     0.000     0.0000.0000E+00     0.000     0.000     0.000     0.000     0.000     0.000     0.000     0.000     0.000     0.000     0.000     0.000     0.0000.0000E+00     0.000     0.000     1.214    20.117
RNGB   80 000060012    6    0    8     5.827     0.000     0.009     0.000     0.001     0.000     0.009     0.0000.8097E+04     0.000     1.403     0.000     0.000     0.000     0.000     0.000     0.000     0.000     0.000     0.000     0.000     0.0000.0000E+00     0.000     0.000     0.000     0.000     0.000     0.000     0.000     0.000     0.000     0.000     0.000     0.000     0.0000.0000E+00     0.000     0.000     5.469    17.336
RNGB   81 000060013    6    0    8    41.846     0.000     0.010     0.000     0.001     0.000     0.000     0.0000.2383E+05     0.000     0.951     0.000     0.000     0.000    24.671     0.000     0.000     0.000     0.000     0.000     0.000     0.0000.0000E+00     0.000     0.000     0.000     0.000     0.000     0.000     0.000     0.000     0.000     0.000     0.000     0.000     0.0000.0000E+00     0.000     0.000     5.469    17.350
RNGB   82 000060014    6    0    8     2.614     0.000     0.011     0.000     0.000     0.000     0.010     0.0000.3632E+04     0.000     0.707     0.000     0.000     0.000     0.000     0.000     0.000     0.000     0.000     0.000     0.000     0.0000.0000E+00     0.000     0.000     0.000     0.000     0.000     0.000     0.000     0.000     0.000     0.000     0.000     0.000     0.0000.0000E+00     0.000     0.000     5.469    18.944
RNGB   83 000060015    6    0    8     8.374     0.000     0.012     0.000     0.000     0.000     0.000     0.0000.5763E+04     0.000     1.065     0.000     0.000     0.000   206.541     0.000     0.000     0.000     0.000     0.000     0.000     0.0000.0000E+00     0.000     0.000     0.000     0.000     0.000     0.000     0.000     0.000     0.000     0.000     0.000     0.000     0.0000.0000E+00     0.000     0.000     5.469    18.960
RNGB   84 000060016    6    0    8    14.549     0.000     0.009     0.000     0.001     0.000     0.007     0.0000.2022E+05     0.000     1.817     0.000     0.000     0.000     0.000     0.000     0.000     0.000     0.000     0.000     0.000     0.0000.0000E+00     0.000     0.000     0.000     0.000     0.000     0.000     0.000     0.000     0.000     0.000     0.000     0.000     0.0000.0000E+00     0.000     0.000     4.813    12.758
WWHT   69 000060001    6    0    9    30.526     0.000     0.005     0.000     0.001     0.000     0.000     0.0000.1454E+05     0.000     2.428     0.000     0.000     0.000    22.076     0.000     0.000     0.000     0.000     0.000     0.000     0.0000.0000E+00     0.000     0.000     0.000     0.000     0.000     0.000     0.000     0.000     0.000     0.000     0.000     0.000     0.0000.0000E+00     0.000     0.000     0.614    10.393
WWHT   70 000060002    6    0    9    46.551     0.000     0.007     0.000     0.001     0.000     0.000     0.0000.2610E+05     0.000     1.590     0.000     0.000     0.000    19.218     0.000     0.000     0.000     0.000     0.000     0.000     0.0000.0000E+00     0.000     0.000     0.000     0.000     0.000     0.000     0.000     0.000     0.000     0.000     0.000     0.000     0.0000.0000E+00     0.000     0.000     0.430     9.983
WWHT   71 000060003    6    0    9    12.233     0.000     0.081     0.000     0.001     0.000     0.080     0.0000.1700E+05     0.000     1.493     0.000     0.000     0.000     0.000     0.000     0.000     0.000     0.000     0.000     0.000     0.0000.0000E+00     0.000     0.000     0.000     0.000     0.000     0.000     0.000     0.000     0.000     0.000     0.000     0.000     0.0000.0000E+00     0.000     0.000     0.884    13.618
WWHT   72 000060004    6    0    9     1.455     0.000     0.938     0.000     0.000     0.000     0.938     0.0000.2021E+04     0.000     0.066     0.000     0.000     0.000     0.000     0.000     0.000     0.000     0.000     0.000     0.000     0.0000.0000E+00     0.000     0.000     0.000     0.000     0.000     0.000     0.000     0.000     0.000     0.000     0.000     0.000     0.0000.0000E+00     0.000     0.000     0.672    11.974
WWHT   73 000060005    6    0    9     2.714     0.000     0.109     0.000     0.000     0.000     0.109     0.0000.3772E+04     0.000     1.502     0.000     0.000     0.000     0.000     0.000     0.000     0.000     0.000     0.000     0.000     0.0000.0000E+00     0.000     0.000     0.000     0.000     0.000     0.000     0.000     0.000     0.000     0.000     0.000     0.000     0.0000.0000E+00     0.000     0.000     0.512    14.847
WWHT   74 000060006    6    0    9    15.631     0.000     0.008     0.000     0.001     0.000     0.000     0.0000.1202E+05     0.000     2.197     0.000     0.000     0.000   215.933     0.000     0.000     0.000     0.000     0.000     0.000     0.0000.0000E+00     0.000     0.000     0.000     0.000     0.000     0.000     0.000     0.000     0.000     0.000     0.000     0.000     0.0000.0000E+00     0.000     0.000     0.537    14.732
AGRL   75 000060007    6    0    9    51.756     0.001     0.006     0.000     0.003     0.000     0.005     0.0000.7192E+05    33.342     0.466     3.823     6.058     0.599     0.308     0.000     0.000     0.000     0.000     0.000     0.000     0.0000.0000E+00     0.000     0.000     0.000     0.000     0.000     0.000     0.000     0.000     0.000     0.000     0.000     0.000     0.0000.0000E+00     0.000     0.000     0.259    18.515
AGRL   76 000060008    6    0    9     4.906     0.000     0.080     0.000     0.000     0.000     0.080     0.0000.6817E+04    23.385     1.213     2.847     3.225     0.413     0.367     0.000     0.000     0.000     0.000     0.000     0.000     0.0000.0000E+00     0.000     0.000     0.000     0.000     0.000     0.000     0.000     0.000     0.000     0.000     0.000     0.000     0.0000.0000E+00     0.000     0.000     0.460    18.966
AGRL   77 000060009    6    0    9    31.692     0.001     0.008     0.000     0.002     0.000     0.000     0.0000.3862E+05    54.232     0.585     6.418     7.273     0.767     0.274     0.000     0.000     0.000     0.000     0.000     0.000     0.0000.0000E+00     0.000     0.000     0.000     0.000     0.000     0.000     0.000     0.000     0.000     0.000     0.000     0.000     0.0000.0000E+00     0.000     0.000     0.485    19.031
AGRL   78 000060010    6    0    9     2.351     0.000     0.079     0.000     0.000     0.000     0.079     0.0000.3266E+04     0.339     0.474     0.041     0.066     0.019     1.569     0.000     0.000     0.000     0.000     0.000     0.000     0.0000.0000E+00     0.000     0.000     0.000     0.000     0.000     0.000     0.000     0.000     0.000     0.000     0.000     0.000     0.0000.0000E+00     0.000     0.000     0.751    25.408
AGRL   79 000060011    6    0    9    14.934     0.000     0.007     0.000     0.001     0.000     0.000     0.0000.1347E+05     6.503     0.687     0.783     1.243     0.180     0.545     0.000     0.000     0.000     0.000     0.000     0.000     0.0000.0000E+00     0.000     0.000     0.000     0.000     0.000     0.000     0.000     0.000     0.000     0.000     0.000     0.000     0.0000.0000E+00     0.000     0.000     0.751    26.301
RNGB   80 000060012    6    0    9     5.827     0.000     0.076     0.000     0.000     0.000     0.075     0.0000.8097E+04     0.000     1.335     0.000     0.000     0.000     0.000     0.000     0.000     0.000     0.000     0.000     0.000     0.0000.0000E+00     0.000     0.000     0.000     0.000     0.000     0.000     0.000     0.000     0.000     0.000     0.000     0.000     0.0000.0000E+00     0.000     0.000     4.026    17.371
RNGB   81 000060013    6    0    9    41.846     0.000     0.006     0.000     0.001     0.000     0.000     0.0000.2407E+05     0.000     0.940     0.000     0.000     0.000    24.581     0.000     0.000     0.000     0.000     0.000     0.000     0.0000.0000E+00     0.000     0.000     0.000     0.000     0.000     0.000     0.000     0.000     0.000     0.000     0.000     0.000     0.0000.0000E+00     0.000     0.000     4.026    17.435
RNGB   82 000060014    6    0    9     2.614     0.000     0.083     0.000     0.000     0.000     0.083     0.0000.3632E+04     0.000     0.681     0.000     0.000     0.000     0.000     0.000     0.000     0.000     0.000     0.000     0.000     0.0000.0000E+00     0.000     0.000     0.000     0.000     0.000     0.000     0.000     0.000     0.000     0.000     0.000     0.000     0.0000.0000E+00     0.000     0.000     4.026    17.848
RNGB   83 000060015    6    0    9     8.374     0.000     0.008     0.000     0.000     0.000     0.000     0.0000.5828E+04     0.000     1.060     0.000     0.000     0.000   207.377     0.000     0.000     0.000     0.000     0.000     0.000     0.0000.0000E+00     0.000     0.000     0.000     0.000     0.000     0.000     0.000     0.000     0.000     0.000     0.000     0.000     0.0000.0000E+00     0.000     0.000     4.026    17.905
RNGB   84 000060016    6    0    9    14.549     0.000     0.052     0.000     0.001     0.000     0.052     0.0000.2022E+05     0.000     1.743     0.000     0.000     0.000     0.000     0.000     0.000     0.000     0.000     0.000     0.000     0.0000.0000E+00     0.000     0.000     0.000     0.000     0.000     0.000     0.000     0.000     0.000     0.000     0.000     0.000     0.0000.0000E+00     0.000     0.000     3.559    19.216
WWHT   69 000060001    6    0   10    30.526     0.001     0.010     0.000     0.000     0.000     0.000     0.0000.1485E+05     0.000     2.366     0.000     0.000     0.000    22.067     0.000     0.000     0.000     0.000     0.000     0.000     0.0000.0000E+00     0.000     0.000     0.000     0.000     0.000     0.000     0.000     0.000     0.000     0.000     0.000     0.000     0.0000.0000E+00     0.000     0.000     0.000    12.160
WWHT   70 000060002    6    0   10    46.551     0.001     0.012     0.000     0.001     0.000     0.000     0.0000.2668E+05     0.000     1.545     0.000     0.000     0.000    19.237     0.000     0.000     0.000     0.000     0.000     0.000     0.0000.0000E+00     0.000     0.000     0.000     0.000     0.000     0.000     0.000     0.000     0.000     0.000     0.000     0.000     0.0000.0000E+00     0.000     0.000     0.000    10.309
WWHT   71 000060003    6    0   10    12.233     0.001     0.287     0.000     0.000     0.000     0.288     0.0000.1700E+05     0.000     1.589     0.000     0.000     0.000     0.000     0.000     0.000     0.000     0.000     0.000     0.000     0.0000.0000E+00     0.000     0.000     0.000     0.000     0.000     0.000     0.000     0.000     0.000     0.000     0.000     0.000     0.0000.0000E+00     0.000     0.000     0.000    15.210
WWHT   72 000060004    6    0   10     1.455     0.000     3.277     0.000     0.000     0.000     3.277     0.0000.2021E+04     0.000     1.839     0.000     0.000     0.000     0.000     0.000     0.000     0.000     0.000     0.000     0.000     0.0000.0000E+00     0.000     0.000     0.000     0.000     0.000     0.000     0.000     0.000     0.000     0.000     0.000     0.000     0.0000.0000E+00     0.000     0.000     0.000    16.020
WWHT   73 000060005    6    0   10     2.714     0.000     0.345     0.000     0.000     0.000     0.345     0.0000.3772E+04     0.000     1.752     0.000     0.000     0.000     0.000     0.000     0.000     0.000     0.000     0.000     0.000     0.0000.0000E+00     0.000     0.000     0.000     0.000     0.000     0.000     0.000     0.000     0.000     0.000     0.000     0.000     0.0000.0000E+00     0.000     0.000     0.000    13.768
WWHT   74 000060006    6    0   10    15.631     0.000     0.017     0.000     0.000     0.000     0.000     0.0000.1229E+05     0.000     2.180     0.000     0.000     0.000   217.675     0.000     0.000     0.000     0.000     0.000     0.000     0.0000.0000E+00     0.000     0.000     0.000     0.000     0.000     0.000     0.000     0.000     0.000     0.000     0.000     0.000     0.0000.0000E+00     0.000     0.000     0.000    13.676
AGRL   75 000060007    6    0   10    51.756     0.002     0.010     0.000     0.002     0.000     0.011     0.0000.7192E+05    32.543     0.456     3.682     5.835     0.582     0.313     0.000     0.000     0.000     0.000     0.000     0.000     0.0000.0000E+00     0.000     0.000     0.000     0.000     0.000     0.000     0.000     0.000     0.000     0.000     0.000     0.000     0.0000.0000E+00     0.000     0.000     0.387    16.370
AGRL   76 000060008    6    0   10     4.906     0.000     0.214     0.000     0.000     0.000     0.215     0.0000.6817E+04    20.011     1.042     2.432     2.755     0.367     0.389     0.000     0.000     0.000     0.000     0.000     0.000     0.0000.0000E+00     0.000     0.000     0.000     0.000     0.000     0.000     0.000     0.000     0.000     0.000     0.000     0.000     0.0000.0000E+00     0.000     0.000     0.430    15.294
AGRL   77 000060009    6    0   10    31.692     0.001     0.013     0.000     0.001     0.000     0.000     0.0000.3905E+05    53.073     0.575     6.227     7.057     0.750     0.277     0.000     0.000     0.000     0.000     0.000     0.000     0.0000.0000E+00     0.000     0.000     0.000     0.000     0.000     0.000     0.000     0.000     0.000     0.000     0.000     0.000     0.0000.0000E+00     0.000     0.000     0.436    15.492
AGRL   78 000060010    6    0   10     2.351     0.000     0.308     0.000     0.000     0.000     0.308     0.0000.3266E+04     0.271     0.382     0.033     0.053     0.016     1.700     0.000     0.000     0.000     0.000     0.000     0.000     0.0000.0000E+00     0.000     0.000     0.000     0.000     0.000     0.000     0.000     0.000     0.000     0.000     0.000     0.000     0.0000.0000E+00     0.000     0.000     0.473    20.276
AGRL   79 000060011    6    0   10    14.934     0.001     0.015     0.000     0.000     0.000     0.000     0.0000.1370E+05     6.359     0.673     0.762     1.210     0.176     0.551     0.000     0.000     0.000     0.000     0.000     0.000     0.0000.0000E+00     0.000     0.000     0.000     0.000     0.000     0.000     0.000     0.000     0.000     0.000     0.000     0.000     0.0000.0000E+00     0.000     0.000     0.473    20.784
RNGB   80 000060012    6    0   10     5.827     0.000     0.207     0.000     0.000     0.000     0.207     0.0000.8097E+04     0.000     1.149     0.000     0.000     0.000     0.000     0.000     0.000     0.000     0.000     0.000     0.000     0.0000.0000E+00     0.000     0.000     0.000     0.000     0.000     0.000     0.000     0.000     0.000     0.000     0.000     0.000     0.0000.0000E+00     0.000     0.000     3.216    14.607
RNGB   81 000060013    6    0   10    41.846     0.001     0.011     0.000     0.001     0.000     0.000     0.0000.2453E+05     0.000     0.913     0.000     0.000     0.000    24.572     0.000     0.000     0.000     0.000     0.000     0.000     0.0000.0000E+00     0.000     0.000     0.000     0.000     0.000     0.000     0.000     0.000     0.000     0.000     0.000     0.000     0.0000.0000E+00     0.000     0.000     3.216    14.857
RNGB   82 000060014    6    0   10     2.614     0.000     0.223     0.000     0.000     0.000     0.223     0.0000.3632E+04     0.000     0.585     0.000     0.000     0.000     0.000     0.000     0.000     0.000     0.000     0.000     0.000     0.0000.0000E+00     0.000     0.000     0.000     0.000     0.000     0.000     0.000     0.000     0.000     0.000     0.000     0.000     0.0000.0000E+00     0.000     0.000     3.216    13.840
RNGB   83 000060015    6    0   10     8.374     0.000     0.014     0.000     0.000     0.000     0.000     0.0000.5946E+04     0.000     1.040     0.000     0.000     0.000   208.872     0.000     0.000     0.000     0.000     0.000     0.000     0.0000.0000E+00     0.000     0.000     0.000     0.000     0.000     0.000     0.000     0.000     0.000     0.000     0.000     0.000     0.0000.0000E+00     0.000     0.000     3.216    14.007
RNGB   84 000060016    6    0   10    14.549     0.001     0.171     0.000     0.001     0.000     0.171     0.0000.2022E+05     0.000     1.534     0.000     0.000     0.000     0.000     0.000     0.000     0.000     0.000     0.000     0.000     0.0000.0000E+00     0.000     0.000     0.000     0.000     0.000     0.000     0.000     0.000     0.000     0.000     0.000     0.000     0.0000.0000E+00     0.000     0.000     2.851    19.513
WWHT   69 000060001    6    0   11    30.526     0.001     0.025     0.000     0.000     0.000     0.000     0.0000.1562E+05     0.000     2.305     0.000     0.000     0.000    22.306     0.000     0.000     0.000     0.000     0.000     0.000     0.0000.0000E+00     0.000     0.000     0.000     0.000     0.000     0.000     0.000     0.000     0.000     0.000     0.000     0.000     0.0000.0000E+00     0.000     0.000     0.000    17.281
WWHT   70 000060002    6    0   11    46.551     0.001     0.026     0.000     0.000     0.000     0.000     0.0000.2794E+05     0.000     1.504     0.000     0.000     0.000    19.433     0.000     0.000     0.000     0.000     0.000     0.000     0.0000.0000E+00     0.000     0.000     0.000     0.000     0.000     0.000     0.000     0.000     0.000     0.000     0.000     0.000     0.0000.0000E+00     0.000     0.000     0.000    16.333
WWHT   71 000060003    6    0   11    12.233     0.001     0.424     0.000     0.000     0.000     0.425     0.0000.1700E+05     0.000     1.727     0.000     0.000     0.000     0.000     0.000     0.000     0.000     0.000     0.000     0.000     0.0000.0000E+00     0.000     0.000     0.000     0.000     0.000     0.000     0.000     0.000     0.000     0.000     0.000     0.000     0.0000.0000E+00     0.000     0.000     0.000    15.006
WWHT   72 000060004    6    0   11     1.455     0.000     4.064     0.000     0.000     0.000     4.064     0.0000.2021E+04     0.000     2.084     0.000     0.000     0.000     0.000     0.000     0.000     0.000     0.000     0.000     0.000     0.0000.0000E+00     0.000     0.000     0.000     0.000     0.000     0.000     0.000     0.000     0.000     0.000     0.000     0.000     0.0000.0000E+00     0.000     0.000     0.000    15.870
WWHT   73 000060005    6    0   11     2.714     0.000     0.605     0.000     0.000     0.000     0.605     0.0000.3772E+04     0.000     1.868     0.000     0.000     0.000     0.000     0.000     0.000     0.000     0.000     0.000     0.000     0.0000.0000E+00     0.000     0.000     0.000     0.000     0.000     0.000     0.000     0.000     0.000     0.000     0.000     0.000     0.0000.0000E+00     0.000     0.000     0.000    15.480
WWHT   74 000060006    6    0   11    15.631     0.000     0.035     0.000     0.000     0.000     0.000     0.0000.1284E+05     0.000     2.172     0.000     0.000     0.000   221.121     0.000     0.000     0.000     0.000     0.000     0.000     0.0000.0000E+00     0.000     0.000     0.000     0.000     0.000     0.000     0.000     0.000     0.000     0.000     0.000     0.000     0.0000.0000E+00     0.000     0.000     0.000    15.513
AGRL   75 000060007    6    0   11    51.756     0.002     0.024     0.000     0.001     0.000     0.025     0.0000.7192E+05    31.463     0.442     3.515     5.569     0.562     0.318     0.000     0.000     0.000     0.000     0.000     0.000     0.0000.0000E+00     0.000     0.000     0.000     0.000     0.000     0.000     0.000     0.000     0.000     0.000     0.000     0.000     0.0000.0000E+00     0.000     0.000     0.302    22.540
AGRL   76 000060008    6    0   11     4.906     0.000     0.413     0.000     0.000     0.000     0.413     0.0000.6817E+04    14.861     0.819     1.803     2.043     0.292     0.433     0.000     0.000     0.000     0.000     0.000     0.000     0.0000.0000E+00     0.000     0.000     0.000     0.000     0.000     0.000     0.000     0.000     0.000     0.000     0.000     0.000     0.0000.0000E+00     0.000     0.000     0.305    20.747
AGRL   77 000060009    6    0   11    31.692     0.001     0.027     0.000     0.000     0.000     0.000     0.0000.3992E+05    51.391     0.560     5.979     6.776     0.727     0.281     0.000     0.000     0.000     0.000     0.000     0.000     0.0000.0000E+00     0.000     0.000     0.000     0.000     0.000     0.000     0.000     0.000     0.000     0.000     0.000     0.000     0.0000.0000E+00     0.000     0.000     0.305    21.007
AGRL   78 000060010    6    0   11     2.351     0.000     0.599     0.000     0.000     0.000     0.599     0.0000.3266E+04     0.177     0.270     0.022     0.034     0.012     1.984     0.000     0.000     0.000     0.000     0.000     0.000     0.0000.0000E+00     0.000     0.000     0.000     0.000     0.000     0.000     0.000     0.000     0.000     0.000     0.000     0.000     0.0000.0000E+00     0.000     0.000     0.243    21.089
AGRL   79 000060011    6    0   11    14.934     0.001     0.034     0.000     0.000     0.000     0.000     0.0000.1421E+05     6.098     0.647     0.728     1.155     0.170     0.560     0.000     0.000     0.000     0.000     0.000     0.000     0.0000.0000E+00     0.000     0.000     0.000     0.000     0.000     0.000     0.000     0.000     0.000     0.000     0.000     0.000     0.0000.0000E+00     0.000     0.000     0.243    21.338
RNGB   80 000060012    6    0   11     5.827     0.000     0.447     0.000     0.000     0.000     0.448     0.0000.8097E+04     0.000     0.835     0.000     0.000     0.000     0.000     0.000     0.000     0.000     0.000     0.000     0.000     0.0000.0000E+00     0.000     0.000     0.000     0.000     0.000     0.000     0.000     0.000     0.000     0.000     0.000     0.000     0.0000.0000E+00     0.000     0.000     2.317    20.399
RNGB   81 000060013    6    0   11    41.846     0.001     0.024     0.000     0.000     0.000     0.000     0.0000.2556E+05     0.000     0.866     0.000     0.000     0.000    24.769     0.000     0.000     0.000     0.000     0.000     0.000     0.0000.0000E+00     0.000     0.000     0.000     0.000     0.000     0.000     0.000     0.000     0.000     0.000     0.000     0.000     0.0000.0000E+00     0.000     0.000     2.317    20.632
RNGB   82 000060014    6    0   11     2.614     0.000     0.414     0.000     0.000     0.000     0.414     0.0000.3632E+04     0.000     0.480     0.000     0.000     0.000     0.000     0.000     0.000     0.000     0.000     0.000     0.000     0.0000.0000E+00     0.000     0.000     0.000     0.000     0.000     0.000     0.000     0.000     0.000     0.000     0.000     0.000     0.0000.0000E+00     0.000     0.000     2.317    18.743
RNGB   83 000060015    6    0   11     8.374     0.000     0.028     0.000     0.000     0.000     0.000     0.0000.6180E+04     0.000     1.003     0.000     0.000     0.000   211.793     0.000     0.000     0.000     0.000     0.000     0.000     0.0000.0000E+00     0.000     0.000     0.000     0.000     0.000     0.000     0.000     0.000     0.000     0.000     0.000     0.000     0.0000.0000E+00     0.000     0.000     2.317    19.051
RNGB   84 000060016    6    0   11    14.549     0.001     0.303     0.000     0.000     0.000     0.303     0.0000.2022E+05     0.000     1.295     0.000     0.000     0.000     0.000     0.000     0.000     0.000     0.000     0.000     0.000     0.0000.0000E+00     0.000     0.000     0.000     0.000     0.000     0.000     0.000     0.000     0.000     0.000     0.000     0.000     0.0000.0000E+00     0.000     0.000     2.009    18.601
WWHT   69 000060001    6    0   12    30.526     0.001     0.119     0.000     0.000     0.000     0.000     0.0000.1929E+05     0.206     1.992     0.032     0.043     0.015     1.776     0.000     0.000     0.000     0.000     0.000     0.000     0.0000.0000E+00     0.000     0.000     0.000     0.000     0.000     0.000     0.000     0.000     0.000     0.000     0.000     0.000     0.0000.0000E+00     0.000     0.206     0.000    12.399
[...]
WWHT   73 000060005    6    0   12     2.714     0.000     0.079     0.000     0.000     0.000     0.079     0.0000.3772E+04     0.000     6.764     0.000     0.000     0.000     0.000     0.000     0.000     0.000     0.000     0.000     0.000     0.0000.0000E+00     0.000     0.000     0.000     0.000     0.000     0.000     0.000     0.000     0.000     0.000     0.000     0.000     0.0000.0000E+00     0.000     0.000     0.027     5.074
WWHT   74 000060006    6    0   12    15.631     0.001     0.015     0.000     0.000     0.000     0.016     0.0000.2172E+05     0.105     6.077     0.012     0.019     0.007     2.459     0.000     0.000     0.000     0.000     0.000     0.000     0.0000.0000E+00     0.000     0.000     0.000     0.000     0.000     0.000     0.000     0.000     0.000     0.000     0.000     0.000     0.0000.0000E+00     0.000     0.000     0.028     5.070
AGRL   75 000060007    6    0   12    51.756     0.004     0.008     0.000     0.000     0.000     0.011     0.0000.7192E+05    28.996     0.454     2.950     4.681     0.492     0.338     0.000     0.000     0.000     0.000     0.000     0.000     0.0000.0000E+00     0.000     0.000     0.000     0.000     0.000     0.000     0.000     0.000     0.000     0.000     0.000     0.000     0.0000.0000E+00     0.000     0.000     0.000     5.337
AGRL   76 000060008    6    0   12     4.906     0.000     0.043     0.000     0.000     0.000     0.044     0.0000.6817E+04    28.606     0.630     3.455     3.956     0.481     0.342     0.000     0.000     0.000     0.000     0.000     0.000     0.0000.0000E+00     0.000     0.000     0.000     0.000     0.000     0.000     0.000     0.000     0.000     0.000     0.000     0.000     0.0000.0000E+00     0.000     0.000     0.000     5.185
AGRL   77 000060009    6    0   12    31.692     0.003     0.010     0.000     0.000     0.000     0.012     0.0000.4404E+05    54.718     0.704     5.904     6.716     0.721     0.282     0.000     0.000     0.000     0.000     0.000     0.000     0.0000.0000E+00     0.000     0.000     0.000     0.000     0.000     0.000     0.000     0.000     0.000     0.000     0.000     0.000     0.0000.0000E+00     0.000     0.000     0.000     5.200
AGRL   78 000060010    6    0   12     2.351     0.000     0.071     0.000     0.000     0.000     0.071     0.0000.3266E+04    18.231     0.218     2.218     3.540     0.397     0.374     0.000     0.000     0.000     0.000     0.000     0.000     0.0000.0000E+00     0.000     0.000     0.000     0.000     0.000     0.000     0.000     0.000     0.000     0.000     0.000     0.000     0.0000.0000E+00     0.000     0.000     0.000     5.245
AGRL   79 000060011    6    0   12    14.934     0.001     0.014     0.000     0.000     0.000     0.015     0.0000.2075E+05    36.893     0.311     4.274     6.779     0.652     0.296     0.000     0.000     0.000     0.000     0.000     0.000     0.0000.0000E+00     0.000     0.000     0.000     0.000     0.000     0.000     0.000     0.000     0.000     0.000     0.000     0.000     0.0000.0000E+00     0.000     0.000     0.000     5.254
RNGB   80 000060012    6    0   12     5.827     0.001     0.042     0.000     0.000     0.000     0.042     0.0000.8097E+04     0.017     0.393     0.002     0.003     0.002     4.733     0.000     0.000     0.000     0.000     0.000     0.000     0.0000.0000E+00     0.000     0.000     0.000     0.000     0.000     0.000     0.000     0.000     0.000     0.000     0.000     0.000     0.0000.0000E+00     0.000     0.000     0.107     5.285
RNGB   81 000060013    6    0   12    41.846     0.003     0.008     0.000     0.000     0.000     0.011     0.0000.5815E+05     1.658     1.548     0.136     0.218     0.048     1.021     0.000     0.000     0.000     0.000     0.000     0.000     0.0000.0000E+00     0.000     0.000     0.000     0.000     0.000     0.000     0.000     0.000     0.000     0.000     0.000     0.000     0.0000.0000E+00     0.000     0.000     0.107     5.307
RNGB   82 000060014    6    0   12     2.614     0.000     0.045     0.000     0.000     0.000     0.045     0.0000.3632E+04     0.012     0.867     0.001     0.002     0.001     5.573     0.000     0.000     0.000     0.000     0.000     0.000     0.0000.0000E+00     0.000     0.000     0.000     0.000     0.000     0.000     0.000     0.000     0.000     0.000     0.000     0.000     0.0000.0000E+00     0.000     0.000     0.107     5.159
RNGB   83 000060015    6    0   12     8.374     0.001     0.011     0.000     0.000     0.000     0.011     0.0000.1164E+05     1.973     2.809     0.220     0.251     0.059     0.921     0.000     0.000     0.000     0.000     0.000     0.000     0.0000.0000E+00     0.000     0.000     0.000     0.000     0.000     0.000     0.000     0.000     0.000     0.000     0.000     0.000     0.0000.0000E+00     0.000     0.000     0.107     5.173
RNGB   84 000060016    6    0   12    14.549     0.001     0.009     0.000     0.000     0.000     0.010     0.0000.2022E+05     0.000     0.371     0.000     0.000     0.000     0.000     0.000     0.000     0.000     0.000     0.000     0.000     0.0000.0000E+00     0.000     0.000     0.000     0.000     0.000     0.000     0.000     0.000     0.000     0.000     0.000     0.000     0.0000.0000E+00     0.000     0.000     0.103     5.203
WWHT   69 000060001    6    0 2015    30.526     0.010     0.403     0.011     0.017     0.000     0.395     0.0000.4242E+05     5.095     2.628     0.520     0.922     0.139     0.616     0.000     0.000     0.000     0.000     0.000     0.000     0.0000.0000E+00     0.000     0.000     0.000     0.000     0.000     0.000     0.000     0.000     0.000     0.000     0.000     0.000     0.0000.0000E+00     0.000     0.697   180.933   173.465
WWHT   70 000060002    6    0 2015    46.551     0.014     0.299     0.005     0.026     0.000     0.288     0.0000.6469E+05     3.964     2.064     0.365     0.524     0.096     0.733     0.000     0.000     0.000     0.000     0.000     0.000     0.0000.0000E+00     0.000     0.000     0.000     0.000     0.000     0.000     0.000     0.000     0.000     0.000     0.000     0.000     0.0000.0000E+00     0.000     0.308   192.139   176.145
WWHT   71 000060003    6    0 2015    12.233     0.004     1.563     0.000     0.008     0.000     1.559     0.0000.1700E+05     0.054     5.203     0.006     0.014     0.005     2.870     0.000     0.000     0.000     0.000     0.000     0.000     0.0000.0000E+00     0.000     0.000     0.000     0.000     0.000     0.000     0.000     0.000     0.000     0.000     0.000     0.000     0.0000.0000E+00     0.000     0.129   164.176   150.281
WWHT   72 000060004    6    0 2015     1.455     0.001    13.612     0.000     0.001     0.000    13.612     0.0000.2021E+04     0.000     2.498     0.000     0.000     0.000     0.000     0.000     0.000     0.000     0.000     0.000     0.000     0.0000.0000E+00     0.000     0.000     0.000     0.000     0.000     0.000     0.000     0.000     0.000     0.000     0.000     0.000     0.0000.0000E+00     0.000     0.000   128.436   136.663
WWHT   73 000060005    6    0 2015     2.714     0.001     2.640     0.000     0.002     0.000     2.639     0.0000.3772E+04     0.000     6.764     0.000     0.000     0.000     0.000     0.000     0.000     0.000     0.000     0.000     0.000     0.0000.0000E+00     0.000     0.000     0.000     0.000     0.000     0.000     0.000     0.000     0.000     0.000     0.000     0.000     0.0000.0000E+00     0.000     0.000   180.547   166.830
WWHT   74 000060006    6    0 2015    15.631     0.005     0.276     0.000     0.010     0.000     0.272     0.0000.2172E+05     0.105     6.077     0.012     0.019     0.007     2.459     0.000     0.000     0.000     0.000     0.000     0.000     0.0000.0000E+00     0.000     0.000     0.000     0.000     0.000     0.000     0.000     0.000     0.000     0.000     0.000     0.000     0.0000.0000E+00     0.000     0.000   195.757   167.426
AGRL   75 000060007    6    0 2015    51.756     0.015     0.832     0.300     0.028     0.000     0.820     0.0010.7192E+05    28.996     0.454     2.950     4.681     0.492     0.338     0.000     0.000     0.000     0.000     0.000     0.000     0.0000.0000E+00     0.000     0.000     0.000     0.000     0.000     0.000     0.000     0.000     0.000     0.000     0.000     0.000     0.0000.0000E+00     0.000     1.855     3.459   261.310
AGRL   76 000060008    6    0 2015     4.906     0.002     2.678     0.944     0.003     0.000     2.677     0.0140.6817E+04    28.606     0.630     3.455     3.956     0.481     0.342     0.000     0.000     0.000     0.000     0.000     0.000     0.0000.0000E+00     0.000     0.000     0.000     0.000     0.000     0.000     0.000     0.000     0.000     0.000     0.000     0.000     0.0000.0000E+00     0.000     1.873     4.052   270.602
AGRL   77 000060009    6    0 2015    31.692     0.010     0.891     0.371     0.018     0.000     0.882     0.0050.4404E+05    54.718     0.704     5.904     6.716     0.721     0.282     0.000     0.000     0.000     0.000     0.000     0.000     0.0000.0000E+00     0.000     0.000     0.000     0.000     0.000     0.000     0.000     0.000     0.000     0.000     0.000     0.000     0.0000.0000E+00     0.000     1.884     4.108   273.066
AGRL   78 000060010    6    0 2015     2.351     0.001     3.876     2.116     0.002     0.000     3.875     0.0110.3266E+04    18.231     0.218     2.218     3.540     0.397     0.374     0.000     0.000     0.000     0.000     0.000     0.000     0.0000.0000E+00     0.000     0.000     0.000     0.000     0.000     0.000     0.000     0.000     0.000     0.000     0.000     0.000     0.0000.0000E+00     0.000     3.242     1.793   271.783
AGRL   79 000060011    6    0 2015    14.934     0.005     1.397     0.692     0.009     0.000     1.393     0.0030.2075E+05    36.893     0.311     4.274     6.779     0.652     0.296     0.000     0.000     0.000     0.000     0.000     0.000     0.0000.0000E+00     0.000     0.000     0.000     0.000     0.000     0.000     0.000     0.000     0.000     0.000     0.000     0.000     0.0000.0000E+00     0.000     3.260     1.802   273.525
RNGB   80 000060012    6    0 2015     5.827     0.002     2.032     0.000     0.004     0.000     2.030     0.0000.8097E+04     0.017     0.393     0.002     0.003     0.002     4.733     0.000     0.000     0.000     0.000     0.000     0.000     0.0000.0000E+00     0.000     0.000     0.000     0.000     0.000     0.000     0.000     0.000     0.000     0.000     0.000     0.000     0.0000.0000E+00     0.000     0.000    16.197   255.084
RNGB   81 000060013    6    0 2015    41.846     0.013     0.223     0.000     0.023     0.000     0.212     0.0000.5815E+05     1.658     1.548     0.136     0.218     0.048     1.021     0.000     0.000     0.000     0.000     0.000     0.000     0.0000.0000E+00     0.000     0.000     0.000     0.000     0.000     0.000     0.000     0.000     0.000     0.000     0.000     0.000     0.0000.0000E+00     0.000     0.000    16.197   257.162
RNGB   82 000060014    6    0 2015     2.614     0.001     2.153     0.000     0.002     0.000     2.152     0.0000.3632E+04     0.012     0.867     0.001     0.002     0.001     5.573     0.000     0.000     0.000     0.000     0.000     0.000     0.0000.0000E+00     0.000     0.000     0.000     0.000     0.000     0.000     0.000     0.000     0.000     0.000     0.000     0.000     0.0000.0000E+00     0.000     0.000    16.197   267.677
RNGB   83 000060015    6    0 2015     8.374     0.003     0.283     0.000     0.005     0.000     0.281     0.0000.1164E+05     1.973     2.809     0.220     0.251     0.059     0.921     0.000     0.000     0.000     0.000     0.000     0.000     0.0000.0000E+00     0.000     0.000     0.000     0.000     0.000     0.000     0.000     0.000     0.000     0.000     0.000     0.000     0.0000.0000E+00     0.000     0.000    16.197   269.840
RNGB   84 000060016    6    0 2015    14.549     0.005     1.027     0.000     0.009     0.000     1.023     0.0000.2022E+05     0.000     0.371     0.000     0.000     0.000     0.000     0.000     0.000     0.000     0.000     0.000     0.000     0.0000.0000E+00     0.000     0.000     0.000     0.000     0.000     0.000     0.000     0.000     0.000     0.000     0.000     0.000     0.0000.0000E+00     0.000     0.000    14.077   219.918
WWHT   69 000060001    6    0  6.0    30.526     0.009     0.333     0.008     0.012     0.000     0.149     0.0000.4242E+05     5.095     2.628     0.520     0.922     0.139     0.616     0.000     0.000     0.000     0.000     0.000     0.000     0.0000.0000E+00     0.000     0.000     0.000     0.000     0.000     0.000     0.000     0.000     0.000     0.000     0.000     0.000     0.0000.0000E+00     0.000     0.378   174.070   184.906
WWHT   70 000060002    6    0  6.0    46.551     0.014     0.315     0.006     0.018     0.000     0.138     0.0000.6469E+05     3.964     2.064     0.365     0.524     0.096     0.733     0.000     0.000     0.000     0.000     0.000     0.000     0.0000.0000E+00     0.000     0.000     0.000     0.000     0.000     0.000     0.000     0.000     0.000     0.000     0.000     0.000     0.0000.0000E+00     0.000     0.230   182.721   189.174
WWHT   71 000060003    6    0  6.0    12.233     0.005     2.569     0.000     0.006     0.000     2.568     0.0000.1700E+05     0.054     5.203     0.006     0.014     0.005     2.870     0.000     0.000     0.000     0.000     0.000     0.000     0.0000.0000E+00     0.000     0.000     0.000     0.000     0.000     0.000     0.000     0.000     0.000     0.000     0.000     0.000     0.0000.0000E+00     0.000     0.046   167.209   161.946
WWHT   72 000060004    6    0  6.0     1.455     0.001    24.141     0.000     0.001     0.000    24.141     0.0000.2021E+04     0.000     2.498     0.000     0.000     0.000     0.000     0.000     0.000     0.000     0.000     0.000     0.000     0.0000.0000E+00     0.000     0.000     0.000     0.000     0.000     0.000     0.000     0.000     0.000     0.000     0.000     0.000     0.0000.0000E+00     0.000     0.000   132.620   152.911
WWHT   73 000060005    6    0  6.0     2.714     0.001     4.036     0.000     0.002     0.000     4.036     0.0000.3772E+04     0.000     6.764     0.000     0.000     0.000     0.000     0.000     0.000     0.000     0.000     0.000     0.000     0.0000.0000E+00     0.000     0.000     0.000     0.000     0.000     0.000     0.000     0.000     0.000     0.000     0.000     0.000     0.0000.0000E+00     0.000     0.000   185.189   181.830
WWHT   74 000060006    6    0  6.0    15.631     0.006     0.327     0.000     0.007     0.000     0.175     0.0000.2172E+05     0.105     6.077     0.012     0.019     0.007     2.459     0.000     0.000     0.000     0.000     0.000     0.000     0.0000.0000E+00     0.000     0.000     0.000     0.000     0.000     0.000     0.000     0.000     0.000     0.000     0.000     0.000     0.0000.0000E+00     0.000     0.027   199.372   182.662
AGRL   75 000060007    6    0  6.0    51.756     0.018     1.731     0.575     0.023     0.000     1.578     0.0020.7192E+05    28.996     0.454     2.950     4.681     0.492     0.338     0.000     0.000     0.000     0.000     0.000     0.000     0.0000.0000E+00     0.000     0.000     0.000     0.000     0.000     0.000     0.000     0.000     0.000     0.000     0.000     0.000     0.0000.0000E+00     0.000     4.423     3.100   283.317
AGRL   76 000060008    6    0  6.0     4.906     0.002     4.614     1.374     0.003     0.000     4.613     0.0220.6817E+04    28.606     0.630     3.455     3.956     0.481     0.342     0.000     0.000     0.000     0.000     0.000     0.000     0.0000.0000E+00     0.000     0.000     0.000     0.000     0.000     0.000     0.000     0.000     0.000     0.000     0.000     0.000     0.0000.0000E+00     0.000     3.797     3.623   291.680
AGRL   77 000060009    6    0  6.0    31.692     0.011     1.638     0.604     0.015     0.000     1.468     0.0080.4404E+05    54.718     0.704     5.904     6.716     0.721     0.282     0.000     0.000     0.000     0.000     0.000     0.000     0.0000.0000E+00     0.000     0.000     0.000     0.000     0.000     0.000     0.000     0.000     0.000     0.000     0.000     0.000     0.0000.0000E+00     0.000     3.992     3.649   293.392
AGRL   78 000060010    6    0  6.0     2.351     0.001     6.306     2.040     0.001     0.000     6.306     0.0110.3266E+04    18.231     0.218     2.218     3.540     0.397     0.374     0.000     0.000     0.000     0.000     0.000     0.000     0.0000.0000E+00     0.000     0.000     0.000     0.000     0.000     0.000     0.000     0.000     0.000     0.000     0.000     0.000     0.0000.0000E+00     0.000     5.221     3.266   281.986
AGRL   79 000060011    6    0  6.0    14.934     0.006     2.155     0.731     0.007     0.000     2.004     0.0030.2075E+05    36.893     0.311     4.274     6.779     0.652     0.296     0.000     0.000     0.000     0.000     0.000     0.000     0.0000.0000E+00     0.000     0.000     0.000     0.000     0.000     0.000     0.000     0.000     0.000     0.000     0.000     0.000     0.0000.0000E+00     0.000     5.354     3.268   284.148
RNGB   80 000060012    6    0  6.0     5.827     0.003     3.446     0.025     0.003     0.000     3.445     0.0000.8097E+04     0.017     0.393     0.002     0.003     0.002     4.733     0.000     0.000     0.000     0.000     0.000     0.000     0.0000.0000E+00     0.000     0.000     0.000     0.000     0.000     0.000     0.000     0.000     0.000     0.000     0.000     0.000     0.0000.0000E+00     0.000     0.052    14.360   277.180
RNGB   81 000060013    6    0  6.0    41.846     0.012     0.288     0.009     0.016     0.000     0.108     0.0000.5815E+05     1.658     1.548     0.136     0.218     0.048     1.021     0.000     0.000     0.000     0.000     0.000     0.000     0.0000.0000E+00     0.000     0.000     0.000     0.000     0.000     0.000     0.000     0.000     0.000     0.000     0.000     0.000     0.0000.0000E+00     0.000     0.060    14.360   278.639
RNGB   82 000060014    6    0  6.0     2.614     0.001     3.508     0.011     0.002     0.000     3.508     0.0000.3632E+04     0.012     0.867     0.001     0.002     0.001     5.573     0.000     0.000     0.000     0.000     0.000     0.000     0.0000.0000E+00     0.000     0.000     0.000     0.000     0.000     0.000     0.000     0.000     0.000     0.000     0.000     0.000     0.0000.0000E+00     0.000     0.029    14.360   286.848
RNGB   83 000060015    6    0  6.0     8.374     0.003     0.344     0.005     0.004     0.000     0.181     0.0000.1164E+05     1.973     2.809     0.220     0.251     0.059     0.921     0.000     0.000     0.000     0.000     0.000     0.000     0.0000.0000E+00     0.000     0.000     0.000     0.000     0.000     0.000     0.000     0.000     0.000     0.000     0.000     0.000     0.0000.0000E+00     0.000     0.034    14.360   288.477
RNGB   84 000060016    6    0  6.0    14.549     0.006     2.020     0.000     0.008     0.000     2.018     0.0000.2022E+05     0.000     0.371     0.000     0.000     0.000     0.000     0.000     0.000     0.000     0.000     0.000     0.000     0.0000.0000E+00     0.000     0.000     0.000     0.000     0.000     0.000     0.000     0.000     0.000     0.000     0.000     0.000     0.0000.0000E+00     0.000     0.000    12.669   235.508
