1
    SWAT Dec 23 2016    VER 2016/Rev 664                                                                 0/ 0/   0      0: 0: 0

    General Input/Output section (file.cio):                                        
    4/30/2018 12:00:00 AM ARCGIS-SWAT interface AV                                  
                                                                                    


LULC  HRU       GIS  SUB  MGT  MON   AREAkm2  PNDPCPmm  PND_INmmPSED_It/ha  PNDEVPmm  PNDSEPmm PND_OUTmmPSED_Ot/ha PNDVOLm^3PNDORGNppm PNDNO3ppmPNDORGPppmPNDMINPppmPNDCHLAppm  PNDSECIm  WETPCPmm  WET_INmmWSED_It/ha  WETEVPmm  WETSEPmm WET_OUTmmWSED_Ot/ha WETVOLm^3WETORGNppm WETNO3ppmWETORGPppmWETMINPppmWETCHLAppm  WETSECIm  POTPCPmm  POT_INmmOSED_It/ha  POTEVPmm  POTSEPmm POT_OUTmmOSED_Ot/ha POTVOLm^3  POT_SAhaHRU_SURQmmPLANT_ETmm SOIL_ETmm
WWHT   69 000060001    6    0    1    30.526     0.000     0.000     0.000     0.000     0.000     0.000     0.0000.0000E+00     0.000     0.000     0.000     0.000     0.000     0.000     0.000     0.000     0.000     0.000     0.000     0.000     0.0000.0000E+00     0.000     0.000     0.000     0.000     0.000     0.000     0.000     0.000     0.000     0.000     0.000     0.000     0.0000.0000E+00     0.000     0.000     0.000     7.770
WWHT   70 000060002    6    0    1    46.551     0.000     0.000     0.000     0.000     0.000     0.000     0.0000.0000E+00     0.000     0.000     0.000     0.000     0.000     0.000     0.000     0.000     0.000     0.000     0.000     0.000     0.0000.0000E+00     0.000     0.000     0.000     0.000     0.000     0.000     0.000     0.000     0.000     0.000     0.000     0.000     0.0000.0000E+00     0.000     0.000     0.000     7.792
WWHT   71 000060003    6    0    1    12.233     0.000     0.000     0.000     0.000     0.000     0.000     0.0000.0000E+00     0.000     0.000     0.000     0.000     0.000     0.000     0.000     0.000     0.000     0.000     0.000     0.000     0.0000.0000E+00     0.000     0.000     0.000     0.000     0.000     0.000     0.000     0.000     0.000     0.000     0.000     0.000     0.0000.0000E+00     0.000     0.000     0.000     7.523
WWHT   72 000060004    6    0    1     1.455     0.000     0.000     0.000     0.000     0.000     0.000     0.0000.0000E+00     0.000     0.000     0.000     0.000     0.000     0.000     0.000     0.000     0.000     0.000     0.000     0.000     0.0000.0000E+00     0.000     0.000     0.000     0.000     0.000     0.000     0.000     0.000     0.000     0.000     0.000     0.000     0.0000.0000E+00     0.000     0.000     0.000     7.603
WWHT   73 000060005    6    0    1     2.714     0.000     0.000     0.000     0.000     0.000     0.000     0.0000.0000E+00     0.000     0.000     0.000     0.000     0.000     0.000     0.000     0.000     0.000     0.000     0.000     0.000     0.0000.0000E+00     0.000     0.000     0.000     0.000     0.000     0.000     0.000     0.000     0.000     0.000     0.000     0.000     0.0000.0000E+00     0.000     0.000     0.000     7.744
WWHT   74 000060006    6    0    1    15.631     0.000     0.000     0.000     0.000     0.000     0.000     0.0000.0000E+00     0.000     0.000     0.000     0.000     0.000     0.000     0.000     0.000     0.000     0.000     0.000     0.000     0.0000.0000E+00     0.000     0.000     0.000     0.000     0.000     0.000     0.000     0.000     0.000     0.000     0.000     0.000     0.0000.0000E+00     0.000     0.000     0.000     7.770
AGRL   75 000060007    6    0    1    51.756     0.000     0.000     0.000     0.000     0.000     0.000     0.0000.0000E+00     0.000     0.000     0.000     0.000     0.000     0.000     0.000     0.000     0.000     0.000     0.000     0.000     0.0000.0000E+00     0.000     0.000     0.000     0.000     0.000     0.000     0.000     0.000     0.000     0.000     0.000     0.000     0.0000.0000E+00     0.000     0.000     0.000     8.625
AGRL   76 000060008    6    0    1     4.906     0.000     0.000     0.000     0.000     0.000     0.000     0.0000.0000E+00     0.000     0.000     0.000     0.000     0.000     0.000     0.000     0.000     0.000     0.000     0.000     0.000     0.0000.0000E+00     0.000     0.000     0.000     0.000     0.000     0.000     0.000     0.000     0.000     0.000     0.000     0.000     0.0000.0000E+00     0.000     0.000     0.000     8.562
AGRL   77 000060009    6    0    1    31.692     0.000     0.000     0.000     0.000     0.000     0.000     0.0000.0000E+00     0.000     0.000     0.000     0.000     0.000     0.000     0.000     0.000     0.000     0.000     0.000     0.000     0.0000.0000E+00     0.000     0.000     0.000     0.000     0.000     0.000     0.000     0.000     0.000     0.000     0.000     0.000     0.0000.0000E+00     0.000     0.000     0.000     8.572
AGRL   78 000060010    6    0    1     2.351     0.000     0.000     0.000     0.000     0.000     0.000     0.0000.0000E+00     0.000     0.000     0.000     0.000     0.000     0.000     0.000     0.000     0.000     0.000     0.000     0.000     0.0000.0000E+00     0.000     0.000     0.000     0.000     0.000     0.000     0.000     0.000     0.000     0.000     0.000     0.000     0.0000.0000E+00     0.000     0.000     0.000     8.557
AGRL   79 000060011    6    0    1    14.934     0.000     0.000     0.000     0.000     0.000     0.000     0.0000.0000E+00     0.000     0.000     0.000     0.000     0.000     0.000     0.000     0.000     0.000     0.000     0.000     0.000     0.0000.0000E+00     0.000     0.000     0.000     0.000     0.000     0.000     0.000     0.000     0.000     0.000     0.000     0.000     0.0000.0000E+00     0.000     0.000     0.000     8.563
RNGB   80 000060012    6    0    1     5.827     0.000     0.000     0.000     0.000     0.000     0.000     0.0000.0000E+00     0.000     0.000     0.000     0.000     0.000     0.000     0.000     0.000     0.000     0.000     0.000     0.000     0.0000.0000E+00     0.000     0.000     0.000     0.000     0.000     0.000     0.000     0.000     0.000     0.000     0.000     0.000     0.0000.0000E+00     0.000     0.000     0.000     8.573
RNGB   81 000060013    6    0    1    41.846     0.000     0.000     0.000     0.000     0.000     0.000     0.0000.0000E+00     0.000     0.000     0.000     0.000     0.000     0.000     0.000     0.000     0.000     0.000     0.000     0.000     0.0000.0000E+00     0.000     0.000     0.000     0.000     0.000     0.000     0.000     0.000     0.000     0.000     0.000     0.000     0.0000.0000E+00     0.000     0.000     0.000     8.589
RNGB   82 000060014    6    0    1     2.614     0.000     0.000     0.000     0.000     0.000     0.000     0.0000.0000E+00     0.000     0.000     0.000     0.000     0.000     0.000     0.000     0.000     0.000     0.000     0.000     0.000     0.0000.0000E+00     0.000     0.000     0.000     0.000     0.000     0.000     0.000     0.000     0.000     0.000     0.000     0.000     0.0000.0000E+00     0.000     0.000     0.000     8.544
RNGB   83 000060015    6    0    1     8.374     0.000     0.000     0.000     0.000     0.000     0.000     0.0000.0000E+00     0.000     0.000     0.000     0.000     0.000     0.000     0.000     0.000     0.000     0.000     0.000     0.000     0.0000.0000E+00     0.000     0.000     0.000     0.000     0.000     0.000     0.000     0.000     0.000     0.000     0.000     0.000     0.0000.0000E+00     0.000     0.000     0.000     8.556
RNGB   84 000060016    6    0    1    14.549     0.000     0.000     0.000     0.000     0.000     0.000     0.0000.0000E+00     0.000     0.000     0.000     0.000     0.000     0.000     0.000     0.000     0.000     0.000     0.000     0.000     0.0000.0000E+00     0.000     0.000     0.000     0.000     0.000     0.000     0.000     0.000     0.000     0.000     0.000     0.000     0.0000.0000E+00     0.000     0.000     0.000     8.359
WWHT   69 000060001    6    0    2    30.526     0.000     0.000     0.000     0.000     0.000     0.000     0.0000.0000E+00     0.000     0.000     0.000     0.000     0.000     0.000     0.000     0.000     0.000     0.000     0.000     0.000     0.0000.0000E+00     0.000     0.000     0.000     0.000     0.000     0.000     0.000     0.000     0.000     0.000     0.000     0.000     0.0000.0000E+00     0.000     0.000     0.000    26.246
WWHT   70 000060002    6    0    2    46.551     0.000     0.000     0.000     0.000     0.000     0.000     0.0000.0000E+00     0.000     0.000     0.000     0.000     0.000     0.000     0.000     0.000     0.000     0.000     0.000     0.000     0.0000.0000E+00     0.000     0.000     0.000     0.000     0.000     0.000     0.000     0.000     0.000     0.000     0.000     0.000     0.0000.0000E+00     0.000     0.000     0.000    26.602
WWHT   71 000060003    6    0    2    12.233     0.000     0.000     0.000     0.000     0.000     0.000     0.0000.0000E+00     0.000     0.000     0.000     0.000     0.000     0.000     0.000     0.000     0.000     0.000     0.000     0.000     0.0000.0000E+00     0.000     0.000     0.000     0.000     0.000     0.000     0.000     0.000     0.000     0.000     0.000     0.000     0.0000.0000E+00     0.000     0.000     0.000    21.148
WWHT   72 000060004    6    0    2     1.455     0.000     0.000     0.000     0.000     0.000     0.000     0.0000.0000E+00     0.000     0.000     0.000     0.000     0.000     0.000     0.000     0.000     0.000     0.000     0.000     0.000     0.0000.0000E+00     0.000     0.000     0.000     0.000     0.000     0.000     0.000     0.000     0.000     0.000     0.000     0.000     0.0000.0000E+00     0.000     0.000     0.000    20.078
WWHT   73 000060005    6    0    2     2.714     0.000     0.000     0.000     0.000     0.000     0.000     0.0000.0000E+00     0.000     0.000     0.000     0.000     0.000     0.000     0.000     0.000     0.000     0.000     0.000     0.000     0.0000.0000E+00     0.000     0.000     0.000     0.000     0.000     0.000     0.000     0.000     0.000     0.000     0.000     0.000     0.0000.0000E+00     0.000     0.000     0.000    24.969
WWHT   74 000060006    6    0    2    15.631     0.000     0.000     0.000     0.000     0.000     0.000     0.0000.0000E+00     0.000     0.000     0.000     0.000     0.000     0.000     0.000     0.000     0.000     0.000     0.000     0.000     0.0000.0000E+00     0.000     0.000     0.000     0.000     0.000     0.000     0.000     0.000     0.000     0.000     0.000     0.000     0.0000.0000E+00     0.000     0.000     0.000    24.963
AGRL   75 000060007    6    0    2    51.756     0.000     0.000     0.000     0.000     0.000     0.000     0.0000.0000E+00     0.000     0.000     0.000     0.000     0.000     0.000     0.000     0.000     0.000     0.000     0.000     0.000     0.0000.0000E+00     0.000     0.000     0.000     0.000     0.000     0.000     0.000     0.000     0.000     0.000     0.000     0.000     0.0000.0000E+00     0.000     0.000     0.000    28.830
AGRL   76 000060008    6    0    2     4.906     0.000     0.000     0.000     0.000     0.000     0.000     0.0000.0000E+00     0.000     0.000     0.000     0.000     0.000     0.000     0.000     0.000     0.000     0.000     0.000     0.000     0.0000.0000E+00     0.000     0.000     0.000     0.000     0.000     0.000     0.000     0.000     0.000     0.000     0.000     0.000     0.0000.0000E+00     0.000     0.000     0.000    28.430
AGRL   77 000060009    6    0    2    31.692     0.000     0.000     0.000     0.000     0.000     0.000     0.0000.0000E+00     0.000     0.000     0.000     0.000     0.000     0.000     0.000     0.000     0.000     0.000     0.000     0.000     0.0000.0000E+00     0.000     0.000     0.000     0.000     0.000     0.000     0.000     0.000     0.000     0.000     0.000     0.000     0.0000.0000E+00     0.000     0.000     0.000    28.750
AGRL   78 000060010    6    0    2     2.351     0.000     0.000     0.000     0.000     0.000     0.000     0.0000.0000E+00     0.000     0.000     0.000     0.000     0.000     0.000     0.000     0.000     0.000     0.000     0.000     0.000     0.0000.0000E+00     0.000     0.000     0.000     0.000     0.000     0.000     0.000     0.000     0.000     0.000     0.000     0.000     0.0000.0000E+00     0.000     0.000     0.000    26.348
AGRL   79 000060011    6    0    2    14.934     0.000     0.000     0.000     0.000     0.000     0.000     0.0000.0000E+00     0.000     0.000     0.000     0.000     0.000     0.000     0.000     0.000     0.000     0.000     0.000     0.000     0.0000.0000E+00     0.000     0.000     0.000     0.000     0.000     0.000     0.000     0.000     0.000     0.000     0.000     0.000     0.0000.0000E+00     0.000     0.000     0.000    26.568
RNGB   80 000060012    6    0    2     5.827     0.000     0.000     0.000     0.000     0.000     0.000     0.0000.0000E+00     0.000     0.000     0.000     0.000     0.000     0.000     0.000     0.000     0.000     0.000     0.000     0.000     0.0000.0000E+00     0.000     0.000     0.000     0.000     0.000     0.000     0.000     0.000     0.000     0.000     0.000     0.000     0.0000.0000E+00     0.000     0.000     0.000    28.350
RNGB   81 000060013    6    0    2    41.846     0.000     0.000     0.000     0.000     0.000     0.000     0.0000.0000E+00     0.000     0.000     0.000     0.000     0.000     0.000     0.000     0.000     0.000     0.000     0.000     0.000     0.0000.0000E+00     0.000     0.000     0.000     0.000     0.000     0.000     0.000     0.000     0.000     0.000     0.000     0.000     0.0000.0000E+00     0.000     0.000     0.000    28.829
RNGB   82 000060014    6    0    2     2.614     0.000     0.000     0.000     0.000     0.000     0.000     0.0000.0000E+00     0.000     0.000     0.000     0.000     0.000     0.000     0.000     0.000     0.000     0.000     0.000     0.000     0.0000.0000E+00     0.000     0.000     0.000     0.000     0.000     0.000     0.000     0.000     0.000     0.000     0.000     0.000     0.0000.0000E+00     0.000     0.000     0.000    28.124
RNGB   83 000060015    6    0    2     8.374     0.000     0.000     0.000     0.000     0.000     0.000     0.0000.0000E+00     0.000     0.000     0.000     0.000     0.000     0.000     0.000     0.000     0.000     0.000     0.000     0.000     0.0000.0000E+00     0.000     0.000     0.000     0.000     0.000     0.000     0.000     0.000     0.000     0.000     0.000     0.000     0.0000.0000E+00     0.000     0.000     0.000    28.398
RNGB   84 000060016    6    0    2    14.549     0.000     0.000     0.000     0.000     0.000     0.000     0.0000.0000E+00     0.000     0.000     0.000     0.000     0.000     0.000     0.000     0.000     0.000     0.000     0.000     0.000     0.0000.0000E+00     0.000     0.000     0.000     0.000     0.000     0.000     0.000     0.000     0.000     0.000     0.000     0.000     0.0000.0000E+00     0.000     0.000     0.000    23.367
WWHT   69 000060001    6    0    3    30.526     0.000     0.000     0.000     0.000     0.000     0.000     0.0000.0000E+00     0.000     0.000     0.000     0.000     0.000     0.000     0.000     0.000     0.000     0.000     0.000     0.000     0.0000.0000E+00     0.000     0.000     0.000     0.000     0.000     0.000     0.000     0.000     0.000     0.000     0.000     0.000     0.0000.0000E+00     0.000     0.000     2.742    29.735
WWHT   70 000060002    6    0    3    46.551     0.000     0.000     0.000     0.000     0.000     0.000     0.0000.0000E+00     0.000     0.000     0.000     0.000     0.000     0.000     0.000     0.000     0.000     0.000     0.000     0.000     0.0000.0000E+00     0.000     0.000     0.000     0.000     0.000     0.000     0.000     0.000     0.000     0.000     0.000     0.000     0.0000.0000E+00     0.000     0.000     2.743    31.129
WWHT   71 000060003    6    0    3    12.233     0.000     0.000     0.000     0.000     0.000     0.000     0.0000.0000E+00     0.000     0.000     0.000     0.000     0.000     0.000     0.000     0.000     0.000     0.000     0.000     0.000     0.0000.0000E+00     0.000     0.000     0.000     0.000     0.000     0.000     0.000     0.000     0.000     0.000     0.000     0.000     0.0000.0000E+00     0.000     0.000     2.378    23.507
WWHT   72 000060004    6    0    3     1.455     0.000     0.000     0.000     0.000     0.000     0.000     0.0000.0000E+00     0.000     0.000     0.000     0.000     0.000     0.000     0.000     0.000     0.000     0.000     0.000     0.000     0.0000.0000E+00     0.000     0.000     0.000     0.000     0.000     0.000     0.000     0.000     0.000     0.000     0.000     0.000     0.0000.0000E+00     0.000     0.000     2.377    21.807
WWHT   73 000060005    6    0    3     2.714     0.000     0.000     0.000     0.000     0.000     0.000     0.0000.0000E+00     0.000     0.000     0.000     0.000     0.000     0.000     0.000     0.000     0.000     0.000     0.000     0.000     0.0000.0000E+00     0.000     0.000     0.000     0.000     0.000     0.000     0.000     0.000     0.000     0.000     0.000     0.000     0.0000.0000E+00     0.000     0.000     2.378    27.846
WWHT   74 000060006    6    0    3    15.631     0.000     0.000     0.000     0.000     0.000     0.000     0.0000.0000E+00     0.000     0.000     0.000     0.000     0.000     0.000     0.000     0.000     0.000     0.000     0.000     0.000     0.0000.0000E+00     0.000     0.000     0.000     0.000     0.000     0.000     0.000     0.000     0.000     0.000     0.000     0.000     0.0000.0000E+00     0.000     0.000     2.378    27.955
AGRL   75 000060007    6    0    3    51.756     0.000     0.000     0.000     0.000     0.000     0.000     0.0000.0000E+00     0.000     0.000     0.000     0.000     0.000     0.000     0.000     0.000     0.000     0.000     0.000     0.000     0.0000.0000E+00     0.000     0.000     0.000     0.000     0.000     0.000     0.000     0.000     0.000     0.000     0.000     0.000     0.0000.0000E+00     0.000     0.000     0.223    33.866
AGRL   76 000060008    6    0    3     4.906     0.000     0.000     0.000     0.000     0.000     0.000     0.0000.0000E+00     0.000     0.000     0.000     0.000     0.000     0.000     0.000     0.000     0.000     0.000     0.000     0.000     0.0000.0000E+00     0.000     0.000     0.000     0.000     0.000     0.000     0.000     0.000     0.000     0.000     0.000     0.000     0.0000.0000E+00     0.000     0.000     0.217    33.795
AGRL   77 000060009    6    0    3    31.692     0.000     0.000     0.000     0.000     0.000     0.000     0.0000.0000E+00     0.000     0.000     0.000     0.000     0.000     0.000     0.000     0.000     0.000     0.000     0.000     0.000     0.0000.0000E+00     0.000     0.000     0.000     0.000     0.000     0.000     0.000     0.000     0.000     0.000     0.000     0.000     0.0000.0000E+00     0.000     0.000     0.217    34.472
AGRL   78 000060010    6    0    3     2.351     0.000     0.000     0.000     0.000     0.000     0.000     0.0000.0000E+00     0.000     0.000     0.000     0.000     0.000     0.000     0.000     0.000     0.000     0.000     0.000     0.000     0.0000.0000E+00     0.000     0.000     0.000     0.000     0.000     0.000     0.000     0.000     0.000     0.000     0.000     0.000     0.0000.0000E+00     0.000     0.000     0.150    30.169
AGRL   79 000060011    6    0    3    14.934     0.000     0.000     0.000     0.000     0.000     0.000     0.0000.0000E+00     0.000     0.000     0.000     0.000     0.000     0.000     0.000     0.000     0.000     0.000     0.000     0.000     0.0000.0000E+00     0.000     0.000     0.000     0.000     0.000     0.000     0.000     0.000     0.000     0.000     0.000     0.000     0.0000.0000E+00     0.000     0.000     0.150    30.577
RNGB   80 000060012    6    0    3     5.827     0.000     0.000     0.000     0.000     0.000     0.000     0.0000.0000E+00     0.000     0.000     0.000     0.000     0.000     0.000     0.000     0.000     0.000     0.000     0.000     0.000     0.0000.0000E+00     0.000     0.000     0.000     0.000     0.000     0.000     0.000     0.000     0.000     0.000     0.000     0.000     0.0000.0000E+00     0.000     0.000     0.273    32.968
RNGB   81 000060013    6    0    3    41.846     0.000     0.000     0.000     0.000     0.000     0.000     0.0000.0000E+00     0.000     0.000     0.000     0.000     0.000     0.000     0.000     0.000     0.000     0.000     0.000     0.000     0.0000.0000E+00     0.000     0.000     0.000     0.000     0.000     0.000     0.000     0.000     0.000     0.000     0.000     0.000     0.0000.0000E+00     0.000     0.000     0.273    33.893
RNGB   82 000060014    6    0    3     2.614     0.000     0.000     0.000     0.000     0.000     0.000     0.0000.0000E+00     0.000     0.000     0.000     0.000     0.000     0.000     0.000     0.000     0.000     0.000     0.000     0.000     0.0000.0000E+00     0.000     0.000     0.000     0.000     0.000     0.000     0.000     0.000     0.000     0.000     0.000     0.000     0.0000.0000E+00     0.000     0.000     0.273    33.284
RNGB   83 000060015    6    0    3     8.374     0.000     0.000     0.000     0.000     0.000     0.000     0.0000.0000E+00     0.000     0.000     0.000     0.000     0.000     0.000     0.000     0.000     0.000     0.000     0.000     0.000     0.0000.0000E+00     0.000     0.000     0.000     0.000     0.000     0.000     0.000     0.000     0.000     0.000     0.000     0.000     0.0000.0000E+00     0.000     0.000     0.273    33.886
RNGB   84 000060016    6    0    3    14.549     0.000     0.000     0.000     0.000     0.000     0.000     0.0000.0000E+00     0.000     0.000     0.000     0.000     0.000     0.000     0.000     0.000     0.000     0.000     0.000     0.000     0.0000.0000E+00     0.000     0.000     0.000     0.000     0.000     0.000     0.000     0.000     0.000     0.000     0.000     0.000     0.0000.0000E+00     0.000     0.000     0.217    27.297
WWHT   69 000060001    6    0    4    30.526     0.000     0.000     0.000     0.000     0.000     0.000     0.0000.0000E+00     0.000     0.000     0.000     0.000     0.000     0.000     0.000     0.000     0.000     0.000     0.000     0.000     0.0000.0000E+00     0.000     0.000     0.000     0.000     0.000     0.000     0.000     0.000     0.000     0.000     0.000     0.000     0.0000.0000E+00     0.000     0.000    40.489    28.417
WWHT   70 000060002    6    0    4    46.551     0.000     0.000     0.000     0.000     0.000     0.000     0.0000.0000E+00     0.000     0.000     0.000     0.000     0.000     0.000     0.000     0.000     0.000     0.000     0.000     0.000     0.0000.0000E+00     0.000     0.000     0.000     0.000     0.000     0.000     0.000     0.000     0.000     0.000     0.000     0.000     0.0000.0000E+00     0.000     0.000    40.504    28.658
WWHT   71 000060003    6    0    4    12.233     0.000     0.000     0.000     0.000     0.000     0.000     0.0000.0000E+00     0.000     0.000     0.000     0.000     0.000     0.000     0.000     0.000     0.000     0.000     0.000     0.000     0.0000.0000E+00     0.000     0.000     0.000     0.000     0.000     0.000     0.000     0.000     0.000     0.000     0.000     0.000     0.0000.0000E+00     0.000     0.000    37.500    22.913
WWHT   72 000060004    6    0    4     1.455     0.000     0.000     0.000     0.000     0.000     0.000     0.0000.0000E+00     0.000     0.000     0.000     0.000     0.000     0.000     0.000     0.000     0.000     0.000     0.000     0.000     0.0000.0000E+00     0.000     0.000     0.000     0.000     0.000     0.000     0.000     0.000     0.000     0.000     0.000     0.000     0.0000.0000E+00     0.000     0.000    37.468    20.995
WWHT   73 000060005    6    0    4     2.714     0.000     0.000     0.000     0.000     0.000     0.000     0.0000.0000E+00     0.000     0.000     0.000     0.000     0.000     0.000     0.000     0.000     0.000     0.000     0.000     0.000     0.0000.0000E+00     0.000     0.000     0.000     0.000     0.000     0.000     0.000     0.000     0.000     0.000     0.000     0.000     0.0000.0000E+00     0.000     0.000    37.139    29.294
WWHT   74 000060006    6    0    4    15.631     0.000     0.000     0.000     0.000     0.000     0.000     0.0000.0000E+00     0.000     0.000     0.000     0.000     0.000     0.000     0.000     0.000     0.000     0.000     0.000     0.000     0.0000.0000E+00     0.000     0.000     0.000     0.000     0.000     0.000     0.000     0.000     0.000     0.000     0.000     0.000     0.0000.0000E+00     0.000     0.000    37.497    29.205
AGRL   75 000060007    6    0    4    51.756     0.000     0.000     0.000     0.000     0.000     0.000     0.0000.0000E+00     0.000     0.000     0.000     0.000     0.000     0.000     0.000     0.000     0.000     0.000     0.000     0.000     0.0000.0000E+00     0.000     0.000     0.000     0.000     0.000     0.000     0.000     0.000     0.000     0.000     0.000     0.000     0.0000.0000E+00     0.000     1.047     0.854    53.624
AGRL   76 000060008    6    0    4     4.906     0.000     0.000     0.000     0.000     0.000     0.000     0.0000.0000E+00     0.000     0.000     0.000     0.000     0.000     0.000     0.000     0.000     0.000     0.000     0.000     0.000     0.0000.0000E+00     0.000     0.000     0.000     0.000     0.000     0.000     0.000     0.000     0.000     0.000     0.000     0.000     0.0000.0000E+00     0.000     0.026     0.854    52.060
AGRL   77 000060009    6    0    4    31.692     0.000     0.000     0.000     0.000     0.000     0.000     0.0000.0000E+00     0.000     0.000     0.000     0.000     0.000     0.000     0.000     0.000     0.000     0.000     0.000     0.000     0.0000.0000E+00     0.000     0.000     0.000     0.000     0.000     0.000     0.000     0.000     0.000     0.000     0.000     0.000     0.0000.0000E+00     0.000     0.246     0.854    53.091
AGRL   78 000060010    6    0    4     2.351     0.000     0.000     0.000     0.000     0.000     0.000     0.0000.0000E+00     0.000     0.000     0.000     0.000     0.000     0.000     0.000     0.000     0.000     0.000     0.000     0.000     0.0000.0000E+00     0.000     0.000     0.000     0.000     0.000     0.000     0.000     0.000     0.000     0.000     0.000     0.000     0.0000.0000E+00     0.000     0.000     0.697    48.085
AGRL   79 000060011    6    0    4    14.934     0.000     0.000     0.000     0.000     0.000     0.000     0.0000.0000E+00     0.000     0.000     0.000     0.000     0.000     0.000     0.000     0.000     0.000     0.000     0.000     0.000     0.0000.0000E+00     0.000     0.000     0.000     0.000     0.000     0.000     0.000     0.000     0.000     0.000     0.000     0.000     0.0000.0000E+00     0.000     0.000     0.697    48.493
RNGB   80 000060012    6    0    4     5.827     0.000     0.000     0.000     0.000     0.000     0.000     0.0000.0000E+00     0.000     0.000     0.000     0.000     0.000     0.000     0.000     0.000     0.000     0.000     0.000     0.000     0.0000.0000E+00     0.000     0.000     0.000     0.000     0.000     0.000     0.000     0.000     0.000     0.000     0.000     0.000     0.0000.0000E+00     0.000     0.000     1.486    52.559
RNGB   81 000060013    6    0    4    41.846     0.000     0.000     0.000     0.000     0.000     0.000     0.0000.0000E+00     0.000     0.000     0.000     0.000     0.000     0.000     0.000     0.000     0.000     0.000     0.000     0.000     0.0000.0000E+00     0.000     0.000     0.000     0.000     0.000     0.000     0.000     0.000     0.000     0.000     0.000     0.000     0.0000.0000E+00     0.000     0.000     1.486    53.339
RNGB   82 000060014    6    0    4     2.614     0.000     0.000     0.000     0.000     0.000     0.000     0.0000.0000E+00     0.000     0.000     0.000     0.000     0.000     0.000     0.000     0.000     0.000     0.000     0.000     0.000     0.0000.0000E+00     0.000     0.000     0.000     0.000     0.000     0.000     0.000     0.000     0.000     0.000     0.000     0.000     0.0000.0000E+00     0.000     0.000     1.486    51.066
RNGB   83 000060015    6    0    4     8.374     0.000     0.000     0.000     0.000     0.000     0.000     0.0000.0000E+00     0.000     0.000     0.000     0.000     0.000     0.000     0.000     0.000     0.000     0.000     0.000     0.000     0.0000.0000E+00     0.000     0.000     0.000     0.000     0.000     0.000     0.000     0.000     0.000     0.000     0.000     0.000     0.0000.0000E+00     0.000     0.000     1.486    52.032
RNGB   84 000060016    6    0    4    14.549     0.000     0.000     0.000     0.000     0.000     0.000     0.0000.0000E+00     0.000     0.000     0.000     0.000     0.000     0.000     0.000     0.000     0.000     0.000     0.000     0.000     0.0000.0000E+00     0.000     0.000     0.000     0.000     0.000     0.000     0.000     0.000     0.000     0.000     0.000     0.000     0.0000.0000E+00     0.000     0.000     1.279    42.346
WWHT   69 000060001    6    0    5    30.526     0.000     0.000     0.000     0.000     0.000     0.000     0.0000.0000E+00     0.000     0.000     0.000     0.000     0.000     0.000     0.000     0.000     0.000     0.000     0.000     0.000     0.0000.0000E+00     0.000     0.000     0.000     0.000     0.000     0.000     0.000     0.000     0.000     0.000     0.000     0.000     0.0000.0000E+00     0.000     0.000    56.477    15.617
WWHT   70 000060002    6    0    5    46.551     0.000     0.000     0.000     0.000     0.000     0.000     0.0000.0000E+00     0.000     0.000     0.000     0.000     0.000     0.000     0.000     0.000     0.000     0.000     0.000     0.000     0.0000.0000E+00     0.000     0.000     0.000     0.000     0.000     0.000     0.000     0.000     0.000     0.000     0.000     0.000     0.0000.0000E+00     0.000     0.000    56.377    16.932
WWHT   71 000060003    6    0    5    12.233     0.000     0.000     0.000     0.000     0.000     0.000     0.0000.0000E+00     0.000     0.000     0.000     0.000     0.000     0.000     0.000     0.000     0.000     0.000     0.000     0.000     0.0000.0000E+00     0.000     0.000     0.000     0.000     0.000     0.000     0.000     0.000     0.000     0.000     0.000     0.000     0.0000.0000E+00     0.000     0.000    53.330    15.715
WWHT   72 000060004    6    0    5     1.455     0.000     0.000     0.000     0.000     0.000     0.000     0.0000.0000E+00     0.000     0.000     0.000     0.000     0.000     0.000     0.000     0.000     0.000     0.000     0.000     0.000     0.0000.0000E+00     0.000     0.000     0.000     0.000     0.000     0.000     0.000     0.000     0.000     0.000     0.000     0.000     0.0000.0000E+00     0.000     0.000    52.051    14.757
WWHT   73 000060005    6    0    5     2.714     0.000     0.000     0.000     0.000     0.000     0.000     0.0000.0000E+00     0.000     0.000     0.000     0.000     0.000     0.000     0.000     0.000     0.000     0.000     0.000     0.000     0.0000.0000E+00     0.000     0.000     0.000     0.000     0.000     0.000     0.000     0.000     0.000     0.000     0.000     0.000     0.0000.0000E+00     0.000     0.000    52.396    19.544
WWHT   74 000060006    6    0    5    15.631     0.000     0.000     0.000     0.000     0.000     0.000     0.0000.0000E+00     0.000     0.000     0.000     0.000     0.000     0.000     0.000     0.000     0.000     0.000     0.000     0.000     0.0000.0000E+00     0.000     0.000     0.000     0.000     0.000     0.000     0.000     0.000     0.000     0.000     0.000     0.000     0.0000.0000E+00     0.000     0.000    53.225    19.475
AGRL   75 000060007    6    0    5    51.756     0.000     0.000     0.000     0.000     0.000     0.000     0.0000.0000E+00     0.000     0.000     0.000     0.000     0.000     0.000     0.000     0.000     0.000     0.000     0.000     0.000     0.0000.0000E+00     0.000     0.000     0.000     0.000     0.000     0.000     0.000     0.000     0.000     0.000     0.000     0.000     0.0000.0000E+00     0.000     0.268     0.873    51.022
AGRL   76 000060008    6    0    5     4.906     0.000     0.000     0.000     0.000     0.000     0.000     0.0000.0000E+00     0.000     0.000     0.000     0.000     0.000     0.000     0.000     0.000     0.000     0.000     0.000     0.000     0.0000.0000E+00     0.000     0.000     0.000     0.000     0.000     0.000     0.000     0.000     0.000     0.000     0.000     0.000     0.0000.0000E+00     0.000     0.017     0.873    51.766
AGRL   77 000060009    6    0    5    31.692     0.000     0.000     0.000     0.000     0.000     0.000     0.0000.0000E+00     0.000     0.000     0.000     0.000     0.000     0.000     0.000     0.000     0.000     0.000     0.000     0.000     0.0000.0000E+00     0.000     0.000     0.000     0.000     0.000     0.000     0.000     0.000     0.000     0.000     0.000     0.000     0.0000.0000E+00     0.000     0.143     0.873    52.511
AGRL   78 000060010    6    0    5     2.351     0.000     0.000     0.000     0.000     0.000     0.000     0.0000.0000E+00     0.000     0.000     0.000     0.000     0.000     0.000     0.000     0.000     0.000     0.000     0.000     0.000     0.0000.0000E+00     0.000     0.000     0.000     0.000     0.000     0.000     0.000     0.000     0.000     0.000     0.000     0.000     0.0000.0000E+00     0.000     0.000     0.689    45.645
AGRL   79 000060011    6    0    5    14.934     0.000     0.000     0.000     0.000     0.000     0.000     0.0000.0000E+00     0.000     0.000     0.000     0.000     0.000     0.000     0.000     0.000     0.000     0.000     0.000     0.000     0.0000.0000E+00     0.000     0.000     0.000     0.000     0.000     0.000     0.000     0.000     0.000     0.000     0.000     0.000     0.0000.0000E+00     0.000     0.000     0.689    46.162
RNGB   80 000060012    6    0    5     5.827     0.000     0.000     0.000     0.000     0.000     0.000     0.0000.0000E+00     0.000     0.000     0.000     0.000     0.000     0.000     0.000     0.000     0.000     0.000     0.000     0.000     0.0000.0000E+00     0.000     0.000     0.000     0.000     0.000     0.000     0.000     0.000     0.000     0.000     0.000     0.000     0.0000.0000E+00     0.000     0.000     1.733    50.507
RNGB   81 000060013    6    0    5    41.846     0.000     0.000     0.000     0.000     0.000     0.000     0.0000.0000E+00     0.000     0.000     0.000     0.000     0.000     0.000     0.000     0.000     0.000     0.000     0.000     0.000     0.0000.0000E+00     0.000     0.000     0.000     0.000     0.000     0.000     0.000     0.000     0.000     0.000     0.000     0.000     0.0000.0000E+00     0.000     0.000     1.733    50.590
RNGB   82 000060014    6    0    5     2.614     0.000     0.000     0.000     0.000     0.000     0.000     0.0000.0000E+00     0.000     0.000     0.000     0.000     0.000     0.000     0.000     0.000     0.000     0.000     0.000     0.000     0.0000.0000E+00     0.000     0.000     0.000     0.000     0.000     0.000     0.000     0.000     0.000     0.000     0.000     0.000     0.0000.0000E+00     0.000     0.000     1.733    50.594
RNGB   83 000060015    6    0    5     8.374     0.000     0.000     0.000     0.000     0.000     0.000     0.0000.0000E+00     0.000     0.000     0.000     0.000     0.000     0.000     0.000     0.000     0.000     0.000     0.000     0.000     0.0000.0000E+00     0.000     0.000     0.000     0.000     0.000     0.000     0.000     0.000     0.000     0.000     0.000     0.000     0.0000.0000E+00     0.000     0.000     1.733    51.228
RNGB   84 000060016    6    0    5    14.549     0.000     0.000     0.000     0.000     0.000     0.000     0.0000.0000E+00     0.000     0.000     0.000     0.000     0.000     0.000     0.000     0.000     0.000     0.000     0.000     0.000     0.0000.0000E+00     0.000     0.000     0.000     0.000     0.000     0.000     0.000     0.000     0.000     0.000     0.000     0.000     0.0000.0000E+00     0.000     0.000     1.487    41.078
WWHT   69 000060001    6    0    6    30.526     0.000     0.000     0.000     0.000     0.000     0.000     0.0000.0000E+00     0.000     0.000     0.000     0.000     0.000     0.000     0.000     0.000     0.000     0.000     0.000     0.000     0.0000.0000E+00     0.000     0.000     0.000     0.000     0.000     0.000     0.000     0.000     0.000     0.000     0.000     0.000     0.0000.0000E+00     0.000     0.000    73.596    17.647
WWHT   70 000060002    6    0    6    46.551     0.000     0.000     0.000     0.000     0.000     0.000     0.0000.0000E+00     0.000     0.000     0.000     0.000     0.000     0.000     0.000     0.000     0.000     0.000     0.000     0.000     0.0000.0000E+00     0.000     0.000     0.000     0.000     0.000     0.000     0.000     0.000     0.000     0.000     0.000     0.000     0.0000.0000E+00     0.000     0.000    73.427    19.061
WWHT   71 000060003    6    0    6    12.233     0.000     0.000     0.000     0.000     0.000     0.000     0.0000.0000E+00     0.000     0.000     0.000     0.000     0.000     0.000     0.000     0.000     0.000     0.000     0.000     0.000     0.0000.0000E+00     0.000     0.000     0.000     0.000     0.000     0.000     0.000     0.000     0.000     0.000     0.000     0.000     0.0000.0000E+00     0.000     0.000    70.949    15.568
WWHT   72 000060004    6    0    6     1.455     0.000     0.000     0.000     0.000     0.000     0.000     0.0000.0000E+00     0.000     0.000     0.000     0.000     0.000     0.000     0.000     0.000     0.000     0.000     0.000     0.000     0.0000.0000E+00     0.000     0.000     0.000     0.000     0.000     0.000     0.000     0.000     0.000     0.000     0.000     0.000     0.0000.0000E+00     0.000     0.000    59.410    13.998
WWHT   73 000060005    6    0    6     2.714     0.000     0.000     0.000     0.000     0.000     0.000     0.0000.0000E+00     0.000     0.000     0.000     0.000     0.000     0.000     0.000     0.000     0.000     0.000     0.000     0.000     0.0000.0000E+00     0.000     0.000     0.000     0.000     0.000     0.000     0.000     0.000     0.000     0.000     0.000     0.000     0.0000.0000E+00     0.000     0.000    70.333    19.628
WWHT   74 000060006    6    0    6    15.631     0.000     0.000     0.000     0.000     0.000     0.000     0.0000.0000E+00     0.000     0.000     0.000     0.000     0.000     0.000     0.000     0.000     0.000     0.000     0.000     0.000     0.0000.0000E+00     0.000     0.000     0.000     0.000     0.000     0.000     0.000     0.000     0.000     0.000     0.000     0.000     0.0000.0000E+00     0.000     0.000    71.089    19.578
AGRL   75 000060007    6    0    6    51.756     0.000     0.000     0.000     0.000     0.000     0.000     0.0000.0000E+00     0.000     0.000     0.000     0.000     0.000     0.000     0.000     0.000     0.000     0.000     0.000     0.000     0.0000.0000E+00     0.000     0.000     0.000     0.000     0.000     0.000     0.000     0.000     0.000     0.000     0.000     0.000     0.0000.0000E+00     0.000     1.906     1.071    57.639
AGRL   76 000060008    6    0    6     4.906     0.000     0.000     0.000     0.000     0.000     0.000     0.0000.0000E+00     0.000     0.000     0.000     0.000     0.000     0.000     0.000     0.000     0.000     0.000     0.000     0.000     0.0000.0000E+00     0.000     0.000     0.000     0.000     0.000     0.000     0.000     0.000     0.000     0.000     0.000     0.000     0.0000.0000E+00     0.000     1.207     1.071    60.585
AGRL   77 000060009    6    0    6    31.692     0.000     0.000     0.000     0.000     0.000     0.000     0.0000.0000E+00     0.000     0.000     0.000     0.000     0.000     0.000     0.000     0.000     0.000     0.000     0.000     0.000     0.0000.0000E+00     0.000     0.000     0.000     0.000     0.000     0.000     0.000     0.000     0.000     0.000     0.000     0.000     0.0000.0000E+00     0.000     1.860     1.071    60.660
AGRL   78 000060010    6    0    6     2.351     0.000     0.000     0.000     0.000     0.000     0.000     0.0000.0000E+00     0.000     0.000     0.000     0.000     0.000     0.000     0.000     0.000     0.000     0.000     0.000     0.000     0.0000.0000E+00     0.000     0.000     0.000     0.000     0.000     0.000     0.000     0.000     0.000     0.000     0.000     0.000     0.0000.0000E+00     0.000     0.033     0.906    51.897
AGRL   79 000060011    6    0    6    14.934     0.000     0.000     0.000     0.000     0.000     0.000     0.0000.0000E+00     0.000     0.000     0.000     0.000     0.000     0.000     0.000     0.000     0.000     0.000     0.000     0.000     0.0000.0000E+00     0.000     0.000     0.000     0.000     0.000     0.000     0.000     0.000     0.000     0.000     0.000     0.000     0.0000.0000E+00     0.000     0.342     0.906    53.228
RNGB   80 000060012    6    0    6     5.827     0.000     0.000     0.000     0.000     0.000     0.000     0.0000.0000E+00     0.000     0.000     0.000     0.000     0.000     0.000     0.000     0.000     0.000     0.000     0.000     0.000     0.0000.0000E+00     0.000     0.000     0.000     0.000     0.000     0.000     0.000     0.000     0.000     0.000     0.000     0.000     0.0000.0000E+00     0.000     0.000     3.518    56.203
RNGB   81 000060013    6    0    6    41.846     0.000     0.000     0.000     0.000     0.000     0.000     0.0000.0000E+00     0.000     0.000     0.000     0.000     0.000     0.000     0.000     0.000     0.000     0.000     0.000     0.000     0.0000.0000E+00     0.000     0.000     0.000     0.000     0.000     0.000     0.000     0.000     0.000     0.000     0.000     0.000     0.0000.0000E+00     0.000     0.000     3.518    56.270
RNGB   82 000060014    6    0    6     2.614     0.000     0.000     0.000     0.000     0.000     0.000     0.0000.0000E+00     0.000     0.000     0.000     0.000     0.000     0.000     0.000     0.000     0.000     0.000     0.000     0.000     0.0000.0000E+00     0.000     0.000     0.000     0.000     0.000     0.000     0.000     0.000     0.000     0.000     0.000     0.000     0.0000.0000E+00     0.000     0.000     3.518    59.087
RNGB   83 000060015    6    0    6     8.374     0.000     0.000     0.000     0.000     0.000     0.000     0.0000.0000E+00     0.000     0.000     0.000     0.000     0.000     0.000     0.000     0.000     0.000     0.000     0.000     0.000     0.0000.0000E+00     0.000     0.000     0.000     0.000     0.000     0.000     0.000     0.000     0.000     0.000     0.000     0.000     0.0000.0000E+00     0.000     0.000     3.518    59.250
RNGB   84 000060016    6    0    6    14.549     0.000     0.000     0.000     0.000     0.000     0.000     0.0000.0000E+00     0.000     0.000     0.000     0.000     0.000     0.000     0.000     0.000     0.000     0.000     0.000     0.000     0.0000.0000E+00     0.000     0.000     0.000     0.000     0.000     0.000     0.000     0.000     0.000     0.000     0.000     0.000     0.0000.0000E+00     0.000     0.000     3.098    42.945
WWHT   69 000060001    6    0    7    30.526     0.000     0.000     0.000     0.000     0.000     0.000     0.0000.0000E+00     0.000     0.000     0.000     0.000     0.000     0.000     0.000     0.000     0.000     0.000     0.000     0.000     0.0000.0000E+00     0.000     0.000     0.000     0.000     0.000     0.000     0.000     0.000     0.000     0.000     0.000     0.000     0.0000.0000E+00     0.000     0.000    59.179     4.774
WWHT   70 000060002    6    0    7    46.551     0.000     0.000     0.000     0.000     0.000     0.000     0.0000.0000E+00     0.000     0.000     0.000     0.000     0.000     0.000     0.000     0.000     0.000     0.000     0.000     0.000     0.0000.0000E+00     0.000     0.000     0.000     0.000     0.000     0.000     0.000     0.000     0.000     0.000     0.000     0.000     0.0000.0000E+00     0.000     0.000    53.793     5.035
WWHT   71 000060003    6    0    7    12.233     0.000     0.000     0.000     0.000     0.000     0.000     0.0000.0000E+00     0.000     0.000     0.000     0.000     0.000     0.000     0.000     0.000     0.000     0.000     0.000     0.000     0.0000.0000E+00     0.000     0.000     0.000     0.000     0.000     0.000     0.000     0.000     0.000     0.000     0.000     0.000     0.0000.0000E+00     0.000     0.000    71.297     2.069
WWHT   72 000060004    6    0    7     1.455     0.000     0.000     0.000     0.000     0.000     0.000     0.0000.0000E+00     0.000     0.000     0.000     0.000     0.000     0.000     0.000     0.000     0.000     0.000     0.000     0.000     0.0000.0000E+00     0.000     0.000     0.000     0.000     0.000     0.000     0.000     0.000     0.000     0.000     0.000     0.000     0.0000.0000E+00     0.000     0.000     8.496     1.433
WWHT   73 000060005    6    0    7     2.714     0.000     0.000     0.000     0.000     0.000     0.000     0.0000.0000E+00     0.000     0.000     0.000     0.000     0.000     0.000     0.000     0.000     0.000     0.000     0.000     0.000     0.0000.0000E+00     0.000     0.000     0.000     0.000     0.000     0.000     0.000     0.000     0.000     0.000     0.000     0.000     0.0000.0000E+00     0.000     0.000    42.819     2.921
WWHT   74 000060006    6    0    7    15.631     0.000     0.000     0.000     0.000     0.000     0.000     0.0000.0000E+00     0.000     0.000     0.000     0.000     0.000     0.000     0.000     0.000     0.000     0.000     0.000     0.000     0.0000.0000E+00     0.000     0.000     0.000     0.000     0.000     0.000     0.000     0.000     0.000     0.000     0.000     0.000     0.0000.0000E+00     0.000     0.000    54.557     2.965
AGRL   75 000060007    6    0    7    51.756     0.000     0.000     0.000     0.000     0.000     0.000     0.0000.0000E+00     0.000     0.000     0.000     0.000     0.000     0.000     0.000     0.000     0.000     0.000     0.000     0.000     0.0000.0000E+00     0.000     0.000     0.000     0.000     0.000     0.000     0.000     0.000     0.000     0.000     0.000     0.000     0.0000.0000E+00     0.000     0.000     1.156    23.355
AGRL   76 000060008    6    0    7     4.906     0.000     0.000     0.000     0.000     0.000     0.000     0.0000.0000E+00     0.000     0.000     0.000     0.000     0.000     0.000     0.000     0.000     0.000     0.000     0.000     0.000     0.0000.0000E+00     0.000     0.000     0.000     0.000     0.000     0.000     0.000     0.000     0.000     0.000     0.000     0.000     0.0000.0000E+00     0.000     0.000     1.446    27.153
AGRL   77 000060009    6    0    7    31.692     0.000     0.000     0.000     0.000     0.000     0.000     0.0000.0000E+00     0.000     0.000     0.000     0.000     0.000     0.000     0.000     0.000     0.000     0.000     0.000     0.000     0.0000.0000E+00     0.000     0.000     0.000     0.000     0.000     0.000     0.000     0.000     0.000     0.000     0.000     0.000     0.0000.0000E+00     0.000     0.000     1.446    27.191
AGRL   78 000060010    6    0    7     2.351     0.000     0.000     0.000     0.000     0.000     0.000     0.0000.0000E+00     0.000     0.000     0.000     0.000     0.000     0.000     0.000     0.000     0.000     0.000     0.000     0.000     0.0000.0000E+00     0.000     0.000     0.000     0.000     0.000     0.000     0.000     0.000     0.000     0.000     0.000     0.000     0.0000.0000E+00     0.000     0.000     1.234    20.026
AGRL   79 000060011    6    0    7    14.934     0.000     0.000     0.000     0.000     0.000     0.000     0.0000.0000E+00     0.000     0.000     0.000     0.000     0.000     0.000     0.000     0.000     0.000     0.000     0.000     0.000     0.0000.0000E+00     0.000     0.000     0.000     0.000     0.000     0.000     0.000     0.000     0.000     0.000     0.000     0.000     0.0000.0000E+00     0.000     0.000     1.234    21.652
RNGB   80 000060012    6    0    7     5.827     0.000     0.000     0.000     0.000     0.000     0.000     0.0000.0000E+00     0.000     0.000     0.000     0.000     0.000     0.000     0.000     0.000     0.000     0.000     0.000     0.000     0.0000.0000E+00     0.000     0.000     0.000     0.000     0.000     0.000     0.000     0.000     0.000     0.000     0.000     0.000     0.0000.0000E+00     0.000     0.000     5.535    21.505
RNGB   81 000060013    6    0    7    41.846     0.000     0.000     0.000     0.000     0.000     0.000     0.0000.0000E+00     0.000     0.000     0.000     0.000     0.000     0.000     0.000     0.000     0.000     0.000     0.000     0.000     0.0000.0000E+00     0.000     0.000     0.000     0.000     0.000     0.000     0.000     0.000     0.000     0.000     0.000     0.000     0.0000.0000E+00     0.000     0.000     5.535    21.538
RNGB   82 000060014    6    0    7     2.614     0.000     0.000     0.000     0.000     0.000     0.000     0.0000.0000E+00     0.000     0.000     0.000     0.000     0.000     0.000     0.000     0.000     0.000     0.000     0.000     0.000     0.0000.0000E+00     0.000     0.000     0.000     0.000     0.000     0.000     0.000     0.000     0.000     0.000     0.000     0.000     0.0000.0000E+00     0.000     0.000     5.535    25.176
RNGB   83 000060015    6    0    7     8.374     0.000     0.000     0.000     0.000     0.000     0.000     0.0000.0000E+00     0.000     0.000     0.000     0.000     0.000     0.000     0.000     0.000     0.000     0.000     0.000     0.000     0.0000.0000E+00     0.000     0.000     0.000     0.000     0.000     0.000     0.000     0.000     0.000     0.000     0.000     0.000     0.0000.0000E+00     0.000     0.000     5.535    25.215
RNGB   84 000060016    6    0    7    14.549     0.000     0.000     0.000     0.000     0.000     0.000     0.0000.0000E+00     0.000     0.000     0.000     0.000     0.000     0.000     0.000     0.000     0.000     0.000     0.000     0.000     0.0000.0000E+00     0.000     0.000     0.000     0.000     0.000     0.000     0.000     0.000     0.000     0.000     0.000     0.000     0.0000.0000E+00     0.000     0.000     4.907    11.839
WWHT   69 000060001    6    0    8    30.526     0.000     0.000     0.000     0.000     0.000     0.000     0.0000.0000E+00     0.000     0.000     0.000     0.000     0.000     0.000     0.000     0.000     0.000     0.000     0.000     0.000     0.0000.0000E+00     0.000     0.000     0.000     0.000     0.000     0.000     0.000     0.000     0.000     0.000     0.000     0.000     0.0000.0000E+00     0.000     0.000     4.198     6.667
WWHT   70 000060002    6    0    8    46.551     0.000     0.000     0.000     0.000     0.000     0.000     0.0000.0000E+00     0.000     0.000     0.000     0.000     0.000     0.000     0.000     0.000     0.000     0.000     0.000     0.000     0.0000.0000E+00     0.000     0.000     0.000     0.000     0.000     0.000     0.000     0.000     0.000     0.000     0.000     0.000     0.0000.0000E+00     0.000     0.000     4.195     8.246
WWHT   71 000060003    6    0    8    12.233     0.000     0.000     0.000     0.000     0.000     0.000     0.0000.0000E+00     0.000     0.000     0.000     0.000     0.000     0.000     0.000     0.000     0.000     0.000     0.000     0.000     0.0000.0000E+00     0.000     0.000     0.000     0.000     0.000     0.000     0.000     0.000     0.000     0.000     0.000     0.000     0.0000.0000E+00     0.000     0.000     7.124     6.129
WWHT   72 000060004    6    0    8     1.455     0.000     0.000     0.000     0.000     0.000     0.000     0.0000.0000E+00     0.000     0.000     0.000     0.000     0.000     0.000     0.000     0.000     0.000     0.000     0.000     0.000     0.0000.0000E+00     0.000     0.000     0.000     0.000     0.000     0.000     0.000     0.000     0.000     0.000     0.000     0.000     0.0000.0000E+00     0.000     0.000     1.679     6.484
WWHT   73 000060005    6    0    8     2.714     0.000     0.000     0.000     0.000     0.000     0.000     0.0000.0000E+00     0.000     0.000     0.000     0.000     0.000     0.000     0.000     0.000     0.000     0.000     0.000     0.000     0.0000.0000E+00     0.000     0.000     0.000     0.000     0.000     0.000     0.000     0.000     0.000     0.000     0.000     0.000     0.0000.0000E+00     0.000     0.000     5.246     7.687
WWHT   74 000060006    6    0    8    15.631     0.000     0.000     0.000     0.000     0.000     0.000     0.0000.0000E+00     0.000     0.000     0.000     0.000     0.000     0.000     0.000     0.000     0.000     0.000     0.000     0.000     0.0000.0000E+00     0.000     0.000     0.000     0.000     0.000     0.000     0.000     0.000     0.000     0.000     0.000     0.000     0.0000.0000E+00     0.000     0.000     6.215     7.634
AGRL   75 000060007    6    0    8    51.756     0.000     0.000     0.000     0.000     0.000     0.000     0.0000.0000E+00     0.000     0.000     0.000     0.000     0.000     0.000     0.000     0.000     0.000     0.000     0.000     0.000     0.0000.0000E+00     0.000     0.000     0.000     0.000     0.000     0.000     0.000     0.000     0.000     0.000     0.000     0.000     0.0000.0000E+00     0.000     0.000     0.130    18.583
AGRL   76 000060008    6    0    8     4.906     0.000     0.000     0.000     0.000     0.000     0.000     0.0000.0000E+00     0.000     0.000     0.000     0.000     0.000     0.000     0.000     0.000     0.000     0.000     0.000     0.000     0.0000.0000E+00     0.000     0.000     0.000     0.000     0.000     0.000     0.000     0.000     0.000     0.000     0.000     0.000     0.0000.0000E+00     0.000     0.000     0.546    20.373
AGRL   77 000060009    6    0    8    31.692     0.000     0.000     0.000     0.000     0.000     0.000     0.0000.0000E+00     0.000     0.000     0.000     0.000     0.000     0.000     0.000     0.000     0.000     0.000     0.000     0.000     0.0000.0000E+00     0.000     0.000     0.000     0.000     0.000     0.000     0.000     0.000     0.000     0.000     0.000     0.000     0.0000.0000E+00     0.000     0.000     0.551    20.389
AGRL   78 000060010    6    0    8     2.351     0.000     0.000     0.000     0.000     0.000     0.000     0.0000.0000E+00     0.000     0.000     0.000     0.000     0.000     0.000     0.000     0.000     0.000     0.000     0.000     0.000     0.0000.0000E+00     0.000     0.000     0.000     0.000     0.000     0.000     0.000     0.000     0.000     0.000     0.000     0.000     0.0000.0000E+00     0.000     0.000     1.214    18.843
AGRL   79 000060011    6    0    8    14.934     0.000     0.000     0.000     0.000     0.000     0.000     0.0000.0000E+00     0.000     0.000     0.000     0.000     0.000     0.000     0.000     0.000     0.000     0.000     0.000     0.000     0.0000.0000E+00     0.000     0.000     0.000     0.000     0.000     0.000     0.000     0.000     0.000     0.000     0.000     0.000     0.0000.0000E+00     0.000     0.000     1.214    20.117
RNGB   80 000060012    6    0    8     5.827     0.000     0.000     0.000     0.000     0.000     0.000     0.0000.0000E+00     0.000     0.000     0.000     0.000     0.000     0.000     0.000     0.000     0.000     0.000     0.000     0.000     0.0000.0000E+00     0.000     0.000     0.000     0.000     0.000     0.000     0.000     0.000     0.000     0.000     0.000     0.000     0.0000.0000E+00     0.000     0.000     5.469    17.336
RNGB   81 000060013    6    0    8    41.846     0.000     0.000     0.000     0.000     0.000     0.000     0.0000.0000E+00     0.000     0.000     0.000     0.000     0.000     0.000     0.000     0.000     0.000     0.000     0.000     0.000     0.0000.0000E+00     0.000     0.000     0.000     0.000     0.000     0.000     0.000     0.000     0.000     0.000     0.000     0.000     0.0000.0000E+00     0.000     0.000     5.469    17.350
RNGB   82 000060014    6    0    8     2.614     0.000     0.000     0.000     0.000     0.000     0.000     0.0000.0000E+00     0.000     0.000     0.000     0.000     0.000     0.000     0.000     0.000     0.000     0.000     0.000     0.000     0.0000.0000E+00     0.000     0.000     0.000     0.000     0.000     0.000     0.000     0.000     0.000     0.000     0.000     0.000     0.0000.0000E+00     0.000     0.000     5.469    18.944
RNGB   83 000060015    6    0    8     8.374     0.000     0.000     0.000     0.000     0.000     0.000     0.0000.0000E+00     0.000     0.000     0.000     0.000     0.000     0.000     0.000     0.000     0.000     0.000     0.000     0.000     0.0000.0000E+00     0.000     0.000     0.000     0.000     0.000     0.000     0.000     0.000     0.000     0.000     0.000     0.000     0.0000.0000E+00     0.000     0.000     5.469    18.960
RNGB   84 000060016    6    0    8    14.549     0.000     0.000     0.000     0.000     0.000     0.000     0.0000.0000E+00     0.000     0.000     0.000     0.000     0.000     0.000     0.000     0.000     0.000     0.000     0.000     0.000     0.0000.0000E+00     0.000     0.000     0.000     0.000     0.000     0.000     0.000     0.000     0.000     0.000     0.000     0.000     0.0000.0000E+00     0.000     0.000     4.813    12.758
WWHT   69 000060001    6    0    9    30.526     0.000     0.000     0.000     0.000     0.000     0.000     0.0000.0000E+00     0.000     0.000     0.000     0.000     0.000     0.000     0.000     0.000     0.000     0.000     0.000     0.000     0.0000.0000E+00     0.000     0.000     0.000     0.000     0.000     0.000     0.000     0.000     0.000     0.000     0.000     0.000     0.0000.0000E+00     0.000     0.000     0.614    10.393
WWHT   70 000060002    6    0    9    46.551     0.000     0.000     0.000     0.000     0.000     0.000     0.0000.0000E+00     0.000     0.000     0.000     0.000     0.000     0.000     0.000     0.000     0.000     0.000     0.000     0.000     0.0000.0000E+00     0.000     0.000     0.000     0.000     0.000     0.000     0.000     0.000     0.000     0.000     0.000     0.000     0.0000.0000E+00     0.000     0.000     0.430     9.983
WWHT   71 000060003    6    0    9    12.233     0.000     0.000     0.000     0.000     0.000     0.000     0.0000.0000E+00     0.000     0.000     0.000     0.000     0.000     0.000     0.000     0.000     0.000     0.000     0.000     0.000     0.0000.0000E+00     0.000     0.000     0.000     0.000     0.000     0.000     0.000     0.000     0.000     0.000     0.000     0.000     0.0000.0000E+00     0.000     0.000     0.884    13.618
WWHT   72 000060004    6    0    9     1.455     0.000     0.000     0.000     0.000     0.000     0.000     0.0000.0000E+00     0.000     0.000     0.000     0.000     0.000     0.000     0.000     0.000     0.000     0.000     0.000     0.000     0.0000.0000E+00     0.000     0.000     0.000     0.000     0.000     0.000     0.000     0.000     0.000     0.000     0.000     0.000     0.0000.0000E+00     0.000     0.000     0.672    11.974
WWHT   73 000060005    6    0    9     2.714     0.000     0.000     0.000     0.000     0.000     0.000     0.0000.0000E+00     0.000     0.000     0.000     0.000     0.000     0.000     0.000     0.000     0.000     0.000     0.000     0.000     0.0000.0000E+00     0.000     0.000     0.000     0.000     0.000     0.000     0.000     0.000     0.000     0.000     0.000     0.000     0.0000.0000E+00     0.000     0.000     0.512    14.847
WWHT   74 000060006    6    0    9    15.631     0.000     0.000     0.000     0.000     0.000     0.000     0.0000.0000E+00     0.000     0.000     0.000     0.000     0.000     0.000     0.000     0.000     0.000     0.000     0.000     0.000     0.0000.0000E+00     0.000     0.000     0.000     0.000     0.000     0.000     0.000     0.000     0.000     0.000     0.000     0.000     0.0000.0000E+00     0.000     0.000     0.537    14.732
AGRL   75 000060007    6    0    9    51.756     0.000     0.000     0.000     0.000     0.000     0.000     0.0000.0000E+00     0.000     0.000     0.000     0.000     0.000     0.000     0.000     0.000     0.000     0.000     0.000     0.000     0.0000.0000E+00     0.000     0.000     0.000     0.000     0.000     0.000     0.000     0.000     0.000     0.000     0.000     0.000     0.0000.0000E+00     0.000     0.000     0.259    18.515
AGRL   76 000060008    6    0    9     4.906     0.000     0.000     0.000     0.000     0.000     0.000     0.0000.0000E+00     0.000     0.000     0.000     0.000     0.000     0.000     0.000     0.000     0.000     0.000     0.000     0.000     0.0000.0000E+00     0.000     0.000     0.000     0.000     0.000     0.000     0.000     0.000     0.000     0.000     0.000     0.000     0.0000.0000E+00     0.000     0.000     0.460    18.966
AGRL   77 000060009    6    0    9    31.692     0.000     0.000     0.000     0.000     0.000     0.000     0.0000.0000E+00     0.000     0.000     0.000     0.000     0.000     0.000     0.000     0.000     0.000     0.000     0.000     0.000     0.0000.0000E+00     0.000     0.000     0.000     0.000     0.000     0.000     0.000     0.000     0.000     0.000     0.000     0.000     0.0000.0000E+00     0.000     0.000     0.485    19.031
AGRL   78 000060010    6    0    9     2.351     0.000     0.000     0.000     0.000     0.000     0.000     0.0000.0000E+00     0.000     0.000     0.000     0.000     0.000     0.000     0.000     0.000     0.000     0.000     0.000     0.000     0.0000.0000E+00     0.000     0.000     0.000     0.000     0.000     0.000     0.000     0.000     0.000     0.000     0.000     0.000     0.0000.0000E+00     0.000     0.000     0.751    25.408
AGRL   79 000060011    6    0    9    14.934     0.000     0.000     0.000     0.000     0.000     0.000     0.0000.0000E+00     0.000     0.000     0.000     0.000     0.000     0.000     0.000     0.000     0.000     0.000     0.000     0.000     0.0000.0000E+00     0.000     0.000     0.000     0.000     0.000     0.000     0.000     0.000     0.000     0.000     0.000     0.000     0.0000.0000E+00     0.000     0.000     0.751    26.301
RNGB   80 000060012    6    0    9     5.827     0.000     0.000     0.000     0.000     0.000     0.000     0.0000.0000E+00     0.000     0.000     0.000     0.000     0.000     0.000     0.000     0.000     0.000     0.000     0.000     0.000     0.0000.0000E+00     0.000     0.000     0.000     0.000     0.000     0.000     0.000     0.000     0.000     0.000     0.000     0.000     0.0000.0000E+00     0.000     0.000     4.026    17.371
RNGB   81 000060013    6    0    9    41.846     0.000     0.000     0.000     0.000     0.000     0.000     0.0000.0000E+00     0.000     0.000     0.000     0.000     0.000     0.000     0.000     0.000     0.000     0.000     0.000     0.000     0.0000.0000E+00     0.000     0.000     0.000     0.000     0.000     0.000     0.000     0.000     0.000     0.000     0.000     0.000     0.0000.0000E+00     0.000     0.000     4.026    17.435
RNGB   82 000060014    6    0    9     2.614     0.000     0.000     0.000     0.000     0.000     0.000     0.0000.0000E+00     0.000     0.000     0.000     0.000     0.000     0.000     0.000     0.000     0.000     0.000     0.000     0.000     0.0000.0000E+00     0.000     0.000     0.000     0.000     0.000     0.000     0.000     0.000     0.000     0.000     0.000     0.000     0.0000.0000E+00     0.000     0.000     4.026    17.848
RNGB   83 000060015    6    0    9     8.374     0.000     0.000     0.000     0.000     0.000     0.000     0.0000.0000E+00     0.000     0.000     0.000     0.000     0.000     0.000     0.000     0.000     0.000     0.000     0.000     0.000     0.0000.0000E+00     0.000     0.000     0.000     0.000     0.000     0.000     0.000     0.000     0.000     0.000     0.000     0.000     0.0000.0000E+00     0.000     0.000     4.026    17.905
RNGB   84 000060016    6    0    9    14.549     0.000     0.000     0.000     0.000     0.000     0.000     0.0000.0000E+00     0.000     0.000     0.000     0.000     0.000     0.000     0.000     0.000     0.000     0.000     0.000     0.000     0.0000.0000E+00     0.000     0.000     0.000     0.000     0.000     0.000     0.000     0.000     0.000     0.000     0.000     0.000     0.0000.0000E+00     0.000     0.000     3.559    19.216
WWHT   69 000060001    6    0   10    30.526     0.000     0.000     0.000     0.000     0.000     0.000     0.0000.0000E+00     0.000     0.000     0.000     0.000     0.000     0.000     0.000     0.000     0.000     0.000     0.000     0.000     0.0000.0000E+00     0.000     0.000     0.000     0.000     0.000     0.000     0.000     0.000     0.000     0.000     0.000     0.000     0.0000.0000E+00     0.000     0.000     0.000    12.160
WWHT   70 000060002    6    0   10    46.551     0.000     0.000     0.000     0.000     0.000     0.000     0.0000.0000E+00     0.000     0.000     0.000     0.000     0.000     0.000     0.000     0.000     0.000     0.000     0.000     0.000     0.0000.0000E+00     0.000     0.000     0.000     0.000     0.000     0.000     0.000     0.000     0.000     0.000     0.000     0.000     0.0000.0000E+00     0.000     0.000     0.000    10.309
WWHT   71 000060003    6    0   10    12.233     0.000     0.000     0.000     0.000     0.000     0.000     0.0000.0000E+00     0.000     0.000     0.000     0.000     0.000     0.000     0.000     0.000     0.000     0.000     0.000     0.000     0.0000.0000E+00     0.000     0.000     0.000     0.000     0.000     0.000     0.000     0.000     0.000     0.000     0.000     0.000     0.0000.0000E+00     0.000     0.000     0.000    15.210
WWHT   72 000060004    6    0   10     1.455     0.000     0.000     0.000     0.000     0.000     0.000     0.0000.0000E+00     0.000     0.000     0.000     0.000     0.000     0.000     0.000     0.000     0.000     0.000     0.000     0.000     0.0000.0000E+00     0.000     0.000     0.000     0.000     0.000     0.000     0.000     0.000     0.000     0.000     0.000     0.000     0.0000.0000E+00     0.000     0.000     0.000    16.020
WWHT   73 000060005    6    0   10     2.714     0.000     0.000     0.000     0.000     0.000     0.000     0.0000.0000E+00     0.000     0.000     0.000     0.000     0.000     0.000     0.000     0.000     0.000     0.000     0.000     0.000     0.0000.0000E+00     0.000     0.000     0.000     0.000     0.000     0.000     0.000     0.000     0.000     0.000     0.000     0.000     0.0000.0000E+00     0.000     0.000     0.000    13.768
WWHT   74 000060006    6    0   10    15.631     0.000     0.000     0.000     0.000     0.000     0.000     0.0000.0000E+00     0.000     0.000     0.000     0.000     0.000     0.000     0.000     0.000     0.000     0.000     0.000     0.000     0.0000.0000E+00     0.000     0.000     0.000     0.000     0.000     0.000     0.000     0.000     0.000     0.000     0.000     0.000     0.0000.0000E+00     0.000     0.000     0.000    13.676
AGRL   75 000060007    6    0   10    51.756     0.000     0.000     0.000     0.000     0.000     0.000     0.0000.0000E+00     0.000     0.000     0.000     0.000     0.000     0.000     0.000     0.000     0.000     0.000     0.000     0.000     0.0000.0000E+00     0.000     0.000     0.000     0.000     0.000     0.000     0.000     0.000     0.000     0.000     0.000     0.000     0.0000.0000E+00     0.000     0.000     0.387    16.370
AGRL   76 000060008    6    0   10     4.906     0.000     0.000     0.000     0.000     0.000     0.000     0.0000.0000E+00     0.000     0.000     0.000     0.000     0.000     0.000     0.000     0.000     0.000     0.000     0.000     0.000     0.0000.0000E+00     0.000     0.000     0.000     0.000     0.000     0.000     0.000     0.000     0.000     0.000     0.000     0.000     0.0000.0000E+00     0.000     0.000     0.430    15.294
AGRL   77 000060009    6    0   10    31.692     0.000     0.000     0.000     0.000     0.000     0.000     0.0000.0000E+00     0.000     0.000     0.000     0.000     0.000     0.000     0.000     0.000     0.000     0.000     0.000     0.000     0.0000.0000E+00     0.000     0.000     0.000     0.000     0.000     0.000     0.000     0.000     0.000     0.000     0.000     0.000     0.0000.0000E+00     0.000     0.000     0.436    15.492
AGRL   78 000060010    6    0   10     2.351     0.000     0.000     0.000     0.000     0.000     0.000     0.0000.0000E+00     0.000     0.000     0.000     0.000     0.000     0.000     0.000     0.000     0.000     0.000     0.000     0.000     0.0000.0000E+00     0.000     0.000     0.000     0.000     0.000     0.000     0.000     0.000     0.000     0.000     0.000     0.000     0.0000.0000E+00     0.000     0.000     0.473    20.276
AGRL   79 000060011    6    0   10    14.934     0.000     0.000     0.000     0.000     0.000     0.000     0.0000.0000E+00     0.000     0.000     0.000     0.000     0.000     0.000     0.000     0.000     0.000     0.000     0.000     0.000     0.0000.0000E+00     0.000     0.000     0.000     0.000     0.000     0.000     0.000     0.000     0.000     0.000     0.000     0.000     0.0000.0000E+00     0.000     0.000     0.473    20.784
RNGB   80 000060012    6    0   10     5.827     0.000     0.000     0.000     0.000     0.000     0.000     0.0000.0000E+00     0.000     0.000     0.000     0.000     0.000     0.000     0.000     0.000     0.000     0.000     0.000     0.000     0.0000.0000E+00     0.000     0.000     0.000     0.000     0.000     0.000     0.000     0.000     0.000     0.000     0.000     0.000     0.0000.0000E+00     0.000     0.000     3.216    14.607
RNGB   81 000060013    6    0   10    41.846     0.000     0.000     0.000     0.000     0.000     0.000     0.0000.0000E+00     0.000     0.000     0.000     0.000     0.000     0.000     0.000     0.000     0.000     0.000     0.000     0.000     0.0000.0000E+00     0.000     0.000     0.000     0.000     0.000     0.000     0.000     0.000     0.000     0.000     0.000     0.000     0.0000.0000E+00     0.000     0.000     3.216    14.857
RNGB   82 000060014    6    0   10     2.614     0.000     0.000     0.000     0.000     0.000     0.000     0.0000.0000E+00     0.000     0.000     0.000     0.000     0.000     0.000     0.000     0.000     0.000     0.000     0.000     0.000     0.0000.0000E+00     0.000     0.000     0.000     0.000     0.000     0.000     0.000     0.000     0.000     0.000     0.000     0.000     0.0000.0000E+00     0.000     0.000     3.216    13.840
RNGB   83 000060015    6    0   10     8.374     0.000     0.000     0.000     0.000     0.000     0.000     0.0000.0000E+00     0.000     0.000     0.000     0.000     0.000     0.000     0.000     0.000     0.000     0.000     0.000     0.000     0.0000.0000E+00     0.000     0.000     0.000     0.000     0.000     0.000     0.000     0.000     0.000     0.000     0.000     0.000     0.0000.0000E+00     0.000     0.000     3.216    14.007
RNGB   84 000060016    6    0   10    14.549     0.000     0.000     0.000     0.000     0.000     0.000     0.0000.0000E+00     0.000     0.000     0.000     0.000     0.000     0.000     0.000     0.000     0.000     0.000     0.000     0.000     0.0000.0000E+00     0.000     0.000     0.000     0.000     0.000     0.000     0.000     0.000     0.000     0.000     0.000     0.000     0.0000.0000E+00     0.000     0.000     2.851    19.513
WWHT   69 000060001    6    0   11    30.526     0.000     0.000     0.000     0.000     0.000     0.000     0.0000.0000E+00     0.000     0.000     0.000     0.000     0.000     0.000     0.000     0.000     0.000     0.000     0.000     0.000     0.0000.0000E+00     0.000     0.000     0.000     0.000     0.000     0.000     0.000     0.000     0.000     0.000     0.000     0.000     0.0000.0000E+00     0.000     0.000     0.000    17.281
WWHT   70 000060002    6    0   11    46.551     0.000     0.000     0.000     0.000     0.000     0.000     0.0000.0000E+00     0.000     0.000     0.000     0.000     0.000     0.000     0.000     0.000     0.000     0.000     0.000     0.000     0.0000.0000E+00     0.000     0.000     0.000     0.000     0.000     0.000     0.000     0.000     0.000     0.000     0.000     0.000     0.0000.0000E+00     0.000     0.000     0.000    16.333
WWHT   71 000060003    6    0   11    12.233     0.000     0.000     0.000     0.000     0.000     0.000     0.0000.0000E+00     0.000     0.000     0.000     0.000     0.000     0.000     0.000     0.000     0.000     0.000     0.000     0.000     0.0000.0000E+00     0.000     0.000     0.000     0.000     0.000     0.000     0.000     0.000     0.000     0.000     0.000     0.000     0.0000.0000E+00     0.000     0.000     0.000    15.006
WWHT   72 000060004    6    0   11     1.455     0.000     0.000     0.000     0.000     0.000     0.000     0.0000.0000E+00     0.000     0.000     0.000     0.000     0.000     0.000     0.000     0.000     0.000     0.000     0.000     0.000     0.0000.0000E+00     0.000     0.000     0.000     0.000     0.000     0.000     0.000     0.000     0.000     0.000     0.000     0.000     0.0000.0000E+00     0.000     0.000     0.000    15.870
WWHT   73 000060005    6    0   11     2.714     0.000     0.000     0.000     0.000     0.000     0.000     0.0000.0000E+00     0.000     0.000     0.000     0.000     0.000     0.000     0.000     0.000     0.000     0.000     0.000     0.000     0.0000.0000E+00     0.000     0.000     0.000     0.000     0.000     0.000     0.000     0.000     0.000     0.000     0.000     0.000     0.0000.0000E+00     0.000     0.000     0.000    15.480
WWHT   74 000060006    6    0   11    15.631     0.000     0.000     0.000     0.000     0.000     0.000     0.0000.0000E+00     0.000     0.000     0.000     0.000     0.000     0.000     0.000     0.000     0.000     0.000     0.000     0.000     0.0000.0000E+00     0.000     0.000     0.000     0.000     0.000     0.000     0.000     0.000     0.000     0.000     0.000     0.000     0.0000.0000E+00     0.000     0.000     0.000    15.513
AGRL   75 000060007    6    0   11    51.756     0.000     0.000     0.000     0.000     0.000     0.000     0.0000.0000E+00     0.000     0.000     0.000     0.000     0.000     0.000     0.000     0.000     0.000     0.000     0.000     0.000     0.0000.0000E+00     0.000     0.000     0.000     0.000     0.000     0.000     0.000     0.000     0.000     0.000     0.000     0.000     0.0000.0000E+00     0.000     0.000     0.302    22.540
AGRL   76 000060008    6    0   11     4.906     0.000     0.000     0.000     0.000     0.000     0.000     0.0000.0000E+00     0.000     0.000     0.000     0.000     0.000     0.000     0.000     0.000     0.000     0.000     0.000     0.000     0.0000.0000E+00     0.000     0.000     0.000     0.000     0.000     0.000     0.000     0.000     0.000     0.000     0.000     0.000     0.0000.0000E+00     0.000     0.000     0.305    20.747
AGRL   77 000060009    6    0   11    31.692     0.000     0.000     0.000     0.000     0.000     0.000     0.0000.0000E+00     0.000     0.000     0.000     0.000     0.000     0.000     0.000     0.000     0.000     0.000     0.000     0.000     0.0000.0000E+00     0.000     0.000     0.000     0.000     0.000     0.000     0.000     0.000     0.000     0.000     0.000     0.000     0.0000.0000E+00     0.000     0.000     0.305    21.007
AGRL   78 000060010    6    0   11     2.351     0.000     0.000     0.000     0.000     0.000     0.000     0.0000.0000E+00     0.000     0.000     0.000     0.000     0.000     0.000     0.000     0.000     0.000     0.000     0.000     0.000     0.0000.0000E+00     0.000     0.000     0.000     0.000     0.000     0.000     0.000     0.000     0.000     0.000     0.000     0.000     0.0000.0000E+00     0.000     0.000     0.243    21.089
AGRL   79 000060011    6    0   11    14.934     0.000     0.000     0.000     0.000     0.000     0.000     0.0000.0000E+00     0.000     0.000     0.000     0.000     0.000     0.000     0.000     0.000     0.000     0.000     0.000     0.000     0.0000.0000E+00     0.000     0.000     0.000     0.000     0.000     0.000     0.000     0.000     0.000     0.000     0.000     0.000     0.0000.0000E+00     0.000     0.000     0.243    21.338
RNGB   80 000060012    6    0   11     5.827     0.000     0.000     0.000     0.000     0.000     0.000     0.0000.0000E+00     0.000     0.000     0.000     0.000     0.000     0.000     0.000     0.000     0.000     0.000     0.000     0.000     0.0000.0000E+00     0.000     0.000     0.000     0.000     0.000     0.000     0.000     0.000     0.000     0.000     0.000     0.000     0.0000.0000E+00     0.000     0.000     2.317    20.399
RNGB   81 000060013    6    0   11    41.846     0.000     0.000     0.000     0.000     0.000     0.000     0.0000.0000E+00     0.000     0.000     0.000     0.000     0.000     0.000     0.000     0.000     0.000     0.000     0.000     0.000     0.0000.0000E+00     0.000     0.000     0.000     0.000     0.000     0.000     0.000     0.000     0.000     0.000     0.000     0.000     0.0000.0000E+00     0.000     0.000     2.317    20.632
RNGB   82 000060014    6    0   11     2.614     0.000     0.000     0.000     0.000     0.000     0.000     0.0000.0000E+00     0.000     0.000     0.000     0.000     0.000     0.000     0.000     0.000     0.000     0.000     0.000     0.000     0.0000.0000E+00     0.000     0.000     0.000     0.000     0.000     0.000     0.000     0.000     0.000     0.000     0.000     0.000     0.0000.0000E+00     0.000     0.000     2.317    18.743
RNGB   83 000060015    6    0   11     8.374     0.000     0.000     0.000     0.000     0.000     0.000     0.0000.0000E+00     0.000     0.000     0.000     0.000     0.000     0.000     0.000     0.000     0.000     0.000     0.000     0.000     0.0000.0000E+00     0.000     0.000     0.000     0.000     0.000     0.000     0.000     0.000     0.000     0.000     0.000     0.000     0.0000.0000E+00     0.000     0.000     2.317    19.051
RNGB   84 000060016    6    0   11    14.549     0.000     0.000     0.000     0.000     0.000     0.000     0.0000.0000E+00     0.000     0.000     0.000     0.000     0.000     0.000     0.000     0.000     0.000     0.000     0.000     0.000     0.0000.0000E+00     0.000     0.000     0.000     0.000     0.000     0.000     0.000     0.000     0.000     0.000     0.000     0.000     0.0000.0000E+00     0.000     0.000     2.009    18.601
WWHT   69 000060001    6    0   12    30.526     0.000     0.000     0.000     0.000     0.000     0.000     0.0000.0000E+00     0.000     0.000     0.000     0.000     0.000     0.000     0.000     0.000     0.000     0.000     0.000     0.000     0.0000.0000E+00     0.000     0.000     0.000     0.000     0.000     0.000     0.000     0.000     0.000     0.000     0.000     0.000     0.0000.0000E+00     0.000     0.275     0.000    12.399
[...]
WWHT   73 000060005    6    0   12     2.714     0.000     0.000     0.000     0.000     0.000     0.000     0.0000.0000E+00     0.000     0.000     0.000     0.000     0.000     0.000     0.000     0.000     0.000     0.000     0.000     0.000     0.0000.0000E+00     0.000     0.000     0.000     0.000     0.000     0.000     0.000     0.000     0.000     0.000     0.000     0.000     0.0000.0000E+00     0.000     0.000     0.027     5.074
WWHT   74 000060006    6    0   12    15.631     0.000     0.000     0.000     0.000     0.000     0.000     0.0000.0000E+00     0.000     0.000     0.000     0.000     0.000     0.000     0.000     0.000     0.000     0.000     0.000     0.000     0.0000.0000E+00     0.000     0.000     0.000     0.000     0.000     0.000     0.000     0.000     0.000     0.000     0.000     0.000     0.0000.0000E+00     0.000     0.000     0.028     5.070
AGRL   75 000060007    6    0   12    51.756     0.000     0.000     0.000     0.000     0.000     0.000     0.0000.0000E+00     0.000     0.000     0.000     0.000     0.000     0.000     0.000     0.000     0.000     0.000     0.000     0.000     0.0000.0000E+00     0.000     0.000     0.000     0.000     0.000     0.000     0.000     0.000     0.000     0.000     0.000     0.000     0.0000.0000E+00     0.000     0.000     0.000     5.337
AGRL   76 000060008    6    0   12     4.906     0.000     0.000     0.000     0.000     0.000     0.000     0.0000.0000E+00     0.000     0.000     0.000     0.000     0.000     0.000     0.000     0.000     0.000     0.000     0.000     0.000     0.0000.0000E+00     0.000     0.000     0.000     0.000     0.000     0.000     0.000     0.000     0.000     0.000     0.000     0.000     0.0000.0000E+00     0.000     0.000     0.000     5.185
AGRL   77 000060009    6    0   12    31.692     0.000     0.000     0.000     0.000     0.000     0.000     0.0000.0000E+00     0.000     0.000     0.000     0.000     0.000     0.000     0.000     0.000     0.000     0.000     0.000     0.000     0.0000.0000E+00     0.000     0.000     0.000     0.000     0.000     0.000     0.000     0.000     0.000     0.000     0.000     0.000     0.0000.0000E+00     0.000     0.000     0.000     5.200
AGRL   78 000060010    6    0   12     2.351     0.000     0.000     0.000     0.000     0.000     0.000     0.0000.0000E+00     0.000     0.000     0.000     0.000     0.000     0.000     0.000     0.000     0.000     0.000     0.000     0.000     0.0000.0000E+00     0.000     0.000     0.000     0.000     0.000     0.000     0.000     0.000     0.000     0.000     0.000     0.000     0.0000.0000E+00     0.000     0.000     0.000     5.245
AGRL   79 000060011    6    0   12    14.934     0.000     0.000     0.000     0.000     0.000     0.000     0.0000.0000E+00     0.000     0.000     0.000     0.000     0.000     0.000     0.000     0.000     0.000     0.000     0.000     0.000     0.0000.0000E+00     0.000     0.000     0.000     0.000     0.000     0.000     0.000     0.000     0.000     0.000     0.000     0.000     0.0000.0000E+00     0.000     0.000     0.000     5.254
RNGB   80 000060012    6    0   12     5.827     0.000     0.000     0.000     0.000     0.000     0.000     0.0000.0000E+00     0.000     0.000     0.000     0.000     0.000     0.000     0.000     0.000     0.000     0.000     0.000     0.000     0.0000.0000E+00     0.000     0.000     0.000     0.000     0.000     0.000     0.000     0.000     0.000     0.000     0.000     0.000     0.0000.0000E+00     0.000     0.000     0.107     5.285
RNGB   81 000060013    6    0   12    41.846     0.000     0.000     0.000     0.000     0.000     0.000     0.0000.0000E+00     0.000     0.000     0.000     0.000     0.000     0.000     0.000     0.000     0.000     0.000     0.000     0.000     0.0000.0000E+00     0.000     0.000     0.000     0.000     0.000     0.000     0.000     0.000     0.000     0.000     0.000     0.000     0.0000.0000E+00     0.000     0.000     0.107     5.307
RNGB   82 000060014    6    0   12     2.614     0.000     0.000     0.000     0.000     0.000     0.000     0.0000.0000E+00     0.000     0.000     0.000     0.000     0.000     0.000     0.000     0.000     0.000     0.000     0.000     0.000     0.0000.0000E+00     0.000     0.000     0.000     0.000     0.000     0.000     0.000     0.000     0.000     0.000     0.000     0.000     0.0000.0000E+00     0.000     0.000     0.107     5.159
RNGB   83 000060015    6    0   12     8.374     0.000     0.000     0.000     0.000     0.000     0.000     0.0000.0000E+00     0.000     0.000     0.000     0.000     0.000     0.000     0.000     0.000     0.000     0.000     0.000     0.000     0.0000.0000E+00     0.000     0.000     0.000     0.000     0.000     0.000     0.000     0.000     0.000     0.000     0.000     0.000     0.0000.0000E+00     0.000     0.000     0.107     5.173
RNGB   84 000060016    6    0   12    14.549     0.000     0.000     0.000     0.000     0.000     0.000     0.0000.0000E+00     0.000     0.000     0.000     0.000     0.000     0.000     0.000     0.000     0.000     0.000     0.000     0.000     0.0000.0000E+00     0.000     0.000     0.000     0.000     0.000     0.000     0.000     0.000     0.000     0.000     0.000     0.000     0.0000.0000E+00     0.000     0.000     0.103     5.203
WWHT   69 000060001    6    0 2015    30.526     0.000     0.000     0.000     0.000     0.000     0.000     0.0000.0000E+00     0.000     0.000     0.000     0.000     0.000     0.000     0.000     0.000     0.000     0.000     0.000     0.000     0.0000.0000E+00     0.000     0.000     0.000     0.000     0.000     0.000     0.000     0.000     0.000     0.000     0.000     0.000     0.0000.0000E+00     0.000     0.929   180.933   173.465
WWHT   70 000060002    6    0 2015    46.551     0.000     0.000     0.000     0.000     0.000     0.000     0.0000.0000E+00     0.000     0.000     0.000     0.000     0.000     0.000     0.000     0.000     0.000     0.000     0.000     0.000     0.0000.0000E+00     0.000     0.000     0.000     0.000     0.000     0.000     0.000     0.000     0.000     0.000     0.000     0.000     0.0000.0000E+00     0.000     0.410   192.139   176.145
WWHT   71 000060003    6    0 2015    12.233     0.000     0.000     0.000     0.000     0.000     0.000     0.0000.0000E+00     0.000     0.000     0.000     0.000     0.000     0.000     0.000     0.000     0.000     0.000     0.000     0.000     0.0000.0000E+00     0.000     0.000     0.000     0.000     0.000     0.000     0.000     0.000     0.000     0.000     0.000     0.000     0.0000.0000E+00     0.000     0.172   164.176   150.281
WWHT   72 000060004    6    0 2015     1.455     0.000     0.000     0.000     0.000     0.000     0.000     0.0000.0000E+00     0.000     0.000     0.000     0.000     0.000     0.000     0.000     0.000     0.000     0.000     0.000     0.000     0.0000.0000E+00     0.000     0.000     0.000     0.000     0.000     0.000     0.000     0.000     0.000     0.000     0.000     0.000     0.0000.0000E+00     0.000     0.000   128.436   136.663
WWHT   73 000060005    6    0 2015     2.714     0.000     0.000     0.000     0.000     0.000     0.000     0.0000.0000E+00     0.000     0.000     0.000     0.000     0.000     0.000     0.000     0.000     0.000     0.000     0.000     0.000     0.0000.0000E+00     0.000     0.000     0.000     0.000     0.000     0.000     0.000     0.000     0.000     0.000     0.000     0.000     0.0000.0000E+00     0.000     0.000   180.547   166.830
WWHT   74 000060006    6    0 2015    15.631     0.000     0.000     0.000     0.000     0.000     0.000     0.0000.0000E+00     0.000     0.000     0.000     0.000     0.000     0.000     0.000     0.000     0.000     0.000     0.000     0.000     0.0000.0000E+00     0.000     0.000     0.000     0.000     0.000     0.000     0.000     0.000     0.000     0.000     0.000     0.000     0.0000.0000E+00     0.000     0.000   195.757   167.426
AGRL   75 000060007    6    0 2015    51.756     0.000     0.000     0.000     0.000     0.000     0.000     0.0000.0000E+00     0.000     0.000     0.000     0.000     0.000     0.000     0.000     0.000     0.000     0.000     0.000     0.000     0.0000.0000E+00     0.000     0.000     0.000     0.000     0.000     0.000     0.000     0.000     0.000     0.000     0.000     0.000     0.0000.0000E+00     0.000     2.474     3.459   261.310
AGRL   76 000060008    6    0 2015     4.906     0.000     0.000     0.000     0.000     0.000     0.000     0.0000.0000E+00     0.000     0.000     0.000     0.000     0.000     0.000     0.000     0.000     0.000     0.000     0.000     0.000     0.0000.0000E+00     0.000     0.000     0.000     0.000     0.000     0.000     0.000     0.000     0.000     0.000     0.000     0.000     0.0000.0000E+00     0.000     2.498     4.052   270.602
AGRL   77 000060009    6    0 2015    31.692     0.000     0.000     0.000     0.000     0.000     0.000     0.0000.0000E+00     0.000     0.000     0.000     0.000     0.000     0.000     0.000     0.000     0.000     0.000     0.000     0.000     0.0000.0000E+00     0.000     0.000     0.000     0.000     0.000     0.000     0.000     0.000     0.000     0.000     0.000     0.000     0.0000.0000E+00     0.000     2.512     4.108   273.066
AGRL   78 000060010    6    0 2015     2.351     0.000     0.000     0.000     0.000     0.000     0.000     0.0000.0000E+00     0.000     0.000     0.000     0.000     0.000     0.000     0.000     0.000     0.000     0.000     0.000     0.000     0.0000.0000E+00     0.000     0.000     0.000     0.000     0.000     0.000     0.000     0.000     0.000     0.000     0.000     0.000     0.0000.0000E+00     0.000     4.322     1.793   271.783
AGRL   79 000060011    6    0 2015    14.934     0.000     0.000     0.000     0.000     0.000     0.000     0.0000.0000E+00     0.000     0.000     0.000     0.000     0.000     0.000     0.000     0.000     0.000     0.000     0.000     0.000     0.0000.0000E+00     0.000     0.000     0.000     0.000     0.000     0.000     0.000     0.000     0.000     0.000     0.000     0.000     0.0000.0000E+00     0.000     4.347     1.802   273.525
RNGB   80 000060012    6    0 2015     5.827     0.000     0.000     0.000     0.000     0.000     0.000     0.0000.0000E+00     0.000     0.000     0.000     0.000     0.000     0.000     0.000     0.000     0.000     0.000     0.000     0.000     0.0000.0000E+00     0.000     0.000     0.000     0.000     0.000     0.000     0.000     0.000     0.000     0.000     0.000     0.000     0.0000.0000E+00     0.000     0.000    16.197   255.084
RNGB   81 000060013    6    0 2015    41.846     0.000     0.000     0.000     0.000     0.000     0.000     0.0000.0000E+00     0.000     0.000     0.000     0.000     0.000     0.000     0.000     0.000     0.000     0.000     0.000     0.000     0.0000.0000E+00     0.000     0.000     0.000     0.000     0.000     0.000     0.000     0.000     0.000     0.000     0.000     0.000     0.0000.0000E+00     0.000     0.000    16.197   257.162
RNGB   82 000060014    6    0 2015     2.614     0.000     0.000     0.000     0.000     0.000     0.000     0.0000.0000E+00     0.000     0.000     0.000     0.000     0.000     0.000     0.000     0.000     0.000     0.000     0.000     0.000     0.0000.0000E+00     0.000     0.000     0.000     0.000     0.000     0.000     0.000     0.000     0.000     0.000     0.000     0.000     0.0000.0000E+00     0.000     0.000    16.197   267.677
RNGB   83 000060015    6    0 2015     8.374     0.000     0.000     0.000     0.000     0.000     0.000     0.0000.0000E+00     0.000     0.000     0.000     0.000     0.000     0.000     0.000     0.000     0.000     0.000     0.000     0.000     0.0000.0000E+00     0.000     0.000     0.000     0.000     0.000     0.000     0.000     0.000     0.000     0.000     0.000     0.000     0.0000.0000E+00     0.000     0.000    16.197   269.840
RNGB   84 000060016    6    0 2015    14.549     0.000     0.000     0.000     0.000     0.000     0.000     0.0000.0000E+00     0.000     0.000     0.000     0.000     0.000     0.000     0.000     0.000     0.000     0.000     0.000     0.000     0.0000.0000E+00     0.000     0.000     0.000     0.000     0.000     0.000     0.000     0.000     0.000     0.000     0.000     0.000     0.0000.0000E+00     0.000     0.000    14.077   219.918
WWHT   69 000060001    6    0  6.0    30.526     0.000     0.000     0.000     0.000     0.000     0.000     0.0000.0000E+00     0.000     0.000     0.000     0.000     0.000     0.000     0.000     0.000     0.000     0.000     0.000     0.000     0.0000.0000E+00     0.000     0.000     0.000     0.000     0.000     0.000     0.000     0.000     0.000     0.000     0.000     0.000     0.0000.0000E+00     0.000     0.504   174.070   184.906
WWHT   70 000060002    6    0  6.0    46.551     0.000     0.000     0.000     0.000     0.000     0.000     0.0000.0000E+00     0.000     0.000     0.000     0.000     0.000     0.000     0.000     0.000     0.000     0.000     0.000     0.000     0.0000.0000E+00     0.000     0.000     0.000     0.000     0.000     0.000     0.000     0.000     0.000     0.000     0.000     0.000     0.0000.0000E+00     0.000     0.306   182.721   189.174
WWHT   71 000060003    6    0  6.0    12.233     0.000     0.000     0.000     0.000     0.000     0.000     0.0000.0000E+00     0.000     0.000     0.000     0.000     0.000     0.000     0.000     0.000     0.000     0.000     0.000     0.000     0.0000.0000E+00     0.000     0.000     0.000     0.000     0.000     0.000     0.000     0.000     0.000     0.000     0.000     0.000     0.0000.0000E+00     0.000     0.061   167.209   161.946
WWHT   72 000060004    6    0  6.0     1.455     0.000     0.000     0.000     0.000     0.000     0.000     0.0000.0000E+00     0.000     0.000     0.000     0.000     0.000     0.000     0.000     0.000     0.000     0.000     0.000     0.000     0.0000.0000E+00     0.000     0.000     0.000     0.000     0.000     0.000     0.000     0.000     0.000     0.000     0.000     0.000     0.0000.0000E+00     0.000     0.000   132.620   152.911
WWHT   73 000060005    6    0  6.0     2.714     0.000     0.000     0.000     0.000     0.000     0.000     0.0000.0000E+00     0.000     0.000     0.000     0.000     0.000     0.000     0.000     0.000     0.000     0.000     0.000     0.000     0.0000.0000E+00     0.000     0.000     0.000     0.000     0.000     0.000     0.000     0.000     0.000     0.000     0.000     0.000     0.0000.0000E+00     0.000     0.000   185.189   181.830
WWHT   74 000060006    6    0  6.0    15.631     0.000     0.000     0.000     0.000     0.000     0.000     0.0000.0000E+00     0.000     0.000     0.000     0.000     0.000     0.000     0.000     0.000     0.000     0.000     0.000     0.000     0.0000.0000E+00     0.000     0.000     0.000     0.000     0.000     0.000     0.000     0.000     0.000     0.000     0.000     0.000     0.0000.0000E+00     0.000     0.036   199.372   182.662
AGRL   75 000060007    6    0  6.0    51.756     0.000     0.000     0.000     0.000     0.000     0.000     0.0000.0000E+00     0.000     0.000     0.000     0.000     0.000     0.000     0.000     0.000     0.000     0.000     0.000     0.000     0.0000.0000E+00     0.000     0.000     0.000     0.000     0.000     0.000     0.000     0.000     0.000     0.000     0.000     0.000     0.0000.0000E+00     0.000     5.898     3.100   283.317
AGRL   76 000060008    6    0  6.0     4.906     0.000     0.000     0.000     0.000     0.000     0.000     0.0000.0000E+00     0.000     0.000     0.000     0.000     0.000     0.000     0.000     0.000     0.000     0.000     0.000     0.000     0.0000.0000E+00     0.000     0.000     0.000     0.000     0.000     0.000     0.000     0.000     0.000     0.000     0.000     0.000     0.0000.0000E+00     0.000     5.063     3.623   291.680
AGRL   77 000060009    6    0  6.0    31.692     0.000     0.000     0.000     0.000     0.000     0.000     0.0000.0000E+00     0.000     0.000     0.000     0.000     0.000     0.000     0.000     0.000     0.000     0.000     0.000     0.000     0.0000.0000E+00     0.000     0.000     0.000     0.000     0.000     0.000     0.000     0.000     0.000     0.000     0.000     0.000     0.0000.0000E+00     0.000     5.323     3.649   293.392
AGRL   78 000060010    6    0  6.0     2.351     0.000     0.000     0.000     0.000     0.000     0.000     0.0000.0000E+00     0.000     0.000     0.000     0.000     0.000     0.000     0.000     0.000     0.000     0.000     0.000     0.000     0.0000.0000E+00     0.000     0.000     0.000     0.000     0.000     0.000     0.000     0.000     0.000     0.000     0.000     0.000     0.0000.0000E+00     0.000     6.961     3.266   281.986
AGRL   79 000060011    6    0  6.0    14.934     0.000     0.000     0.000     0.000     0.000     0.000     0.0000.0000E+00     0.000     0.000     0.000     0.000     0.000     0.000     0.000     0.000     0.000     0.000     0.000     0.000     0.0000.0000E+00     0.000     0.000     0.000     0.000     0.000     0.000     0.000     0.000     0.000     0.000     0.000     0.000     0.0000.0000E+00     0.000     7.139     3.268   284.148
RNGB   80 000060012    6    0  6.0     5.827     0.000     0.000     0.000     0.000     0.000     0.000     0.0000.0000E+00     0.000     0.000     0.000     0.000     0.000     0.000     0.000     0.000     0.000     0.000     0.000     0.000     0.0000.0000E+00     0.000     0.000     0.000     0.000     0.000     0.000     0.000     0.000     0.000     0.000     0.000     0.000     0.0000.0000E+00     0.000     0.069    14.360   277.180
RNGB   81 000060013    6    0  6.0    41.846     0.000     0.000     0.000     0.000     0.000     0.000     0.0000.0000E+00     0.000     0.000     0.000     0.000     0.000     0.000     0.000     0.000     0.000     0.000     0.000     0.000     0.0000.0000E+00     0.000     0.000     0.000     0.000     0.000     0.000     0.000     0.000     0.000     0.000     0.000     0.000     0.0000.0000E+00     0.000     0.080    14.360   278.639
RNGB   82 000060014    6    0  6.0     2.614     0.000     0.000     0.000     0.000     0.000     0.000     0.0000.0000E+00     0.000     0.000     0.000     0.000     0.000     0.000     0.000     0.000     0.000     0.000     0.000     0.000     0.0000.0000E+00     0.000     0.000     0.000     0.000     0.000     0.000     0.000     0.000     0.000     0.000     0.000     0.000     0.0000.0000E+00     0.000     0.039    14.360   286.848
RNGB   83 000060015    6    0  6.0     8.374     0.000     0.000     0.000     0.000     0.000     0.000     0.0000.0000E+00     0.000     0.000     0.000     0.000     0.000     0.000     0.000     0.000     0.000     0.000     0.000     0.000     0.0000.0000E+00     0.000     0.000     0.000     0.000     0.000     0.000     0.000     0.000     0.000     0.000     0.000     0.000     0.0000.0000E+00     0.000     0.046    14.360   288.477
RNGB   84 000060016    6    0  6.0    14.549     0.000     0.000     0.000     0.000     0.000     0.000     0.0000.0000E+00     0.000     0.000     0.000     0.000     0.000     0.000     0.000     0.000     0.000     0.000     0.000     0.000     0.0000.0000E+00     0.000     0.000     0.000     0.000     0.000     0.000     0.000     0.000     0.000     0.000     0.000     0.000     0.0000.0000E+00     0.000     0.000    12.669   235.508
