1
    SWAT Dec 23 2016    VER 2016/Rev 664                                                                 0/ 0/   0      0: 0: 0

    General Input/Output section (file.cio):                                        
    4/30/2018 12:00:00 AM ARCGIS-SWAT interface AV                                  
                                                                                    


       SUB      GIS  MON   AREAkm2  PRECIPmm SNOMELTmm     PETmm      ETmm      SWmm    PERCmm    SURQmm    GW_Qmm    WYLDmm  SYLDt/ha ORGNkg/ha ORGPkg/haNSURQkg/ha SOLPkg/ha SEDPkg/ha LAT Q(mm)LATNO3kg/hGWNO3kg/haCHOLAmic/LCBODU mg/L DOXQ mg/L TNO3kg/ha   QTILEmm TVAPkg/ha
BIGSUB   1        0    1.49654E+03    51.697     1.800    17.984    12.232    87.400     8.708     0.000     0.038     0.888     0.000     0.000     0.000     0.000     0.000     0.000     0.850     0.010     0.000 .00000E+00 0.000E+00 0.000E+00 0.000E+00 0.000E+00 0.000E+00
BIGSUB   2        0    1.43327E+03    51.680     1.800    18.148    13.148    81.568     8.527     0.010     0.071     1.535     0.001     0.001     0.000     0.000     0.000     0.000     1.421     0.032     0.000 .00000E+00 0.000E+00 0.000E+00 0.000E+00 0.000E+00 0.000E+00
BIGSUB   3        0    1.32812E+03    51.701    10.600    18.519    13.304    42.601    17.817     0.000     0.106     6.564     0.000     0.000     0.000     0.000     0.000     0.000     6.402     0.042     0.000 .00000E+00 0.000E+00 0.000E+00 0.000E+00 0.000E+00 0.000E+00
BIGSUB   4        0    1.83628E+03    51.705    10.600    17.835    13.264    57.111     9.687     0.000     0.000     6.262     0.000     0.000     0.000     0.000     0.000     0.000     6.240     0.093     0.000 .00000E+00 0.000E+00 0.000E+00 0.000E+00 0.000E+00 0.000E+00
BIGSUB   5        0    1.53492E+03    51.718     1.800    17.909    12.960    52.419    19.842     0.014     0.109     2.388     0.001     0.002     0.000     0.000     0.000     0.000     2.190     0.027     0.000 .00000E+00 0.000E+00 0.000E+00 0.000E+00 0.000E+00 0.000E+00
BIGSUB   6        0    1.28785E+03    54.871     2.000     9.063     8.244   157.449     4.381     0.000     0.000     0.434     0.000     0.000     0.000     0.000     0.000     0.000     0.427     0.009     0.000 .00000E+00 0.000E+00 0.000E+00 0.000E+00 0.000E+00 0.000E+00
BIGSUB   7        0    1.51917E+03    57.603    24.307     6.277     5.526   212.219    13.388     0.056     0.170     1.964     0.053     0.047     0.006     0.000     0.000     0.009     1.719     0.020     0.000 .00000E+00 0.000E+00 0.000E+00 0.000E+00 0.000E+00 0.000E+00
BIGSUB   8        0    1.73656E+03    51.701    10.600    17.820    12.566    40.567    11.814     2.400     1.611    10.937     1.283     1.182     0.145     0.002     0.001     0.188     6.855     0.126     0.000 .00000E+00 0.000E+00 0.000E+00 0.000E+00 0.000E+00 0.000E+00
BIGSUB   9        0    1.51556E+03    89.880    56.577     1.468     1.226    71.626    58.525     1.820    25.895    52.996     3.251     2.236     0.274     0.001     0.000     0.241    24.368     0.193     0.010 .00000E+00 0.000E+00 0.000E+00 0.000E+00 0.000E+00 0.000E+00
BIGSUB  10        0    1.53154E+03    59.338    26.017     5.481     4.580    55.934    35.771     0.157     8.689    21.650     0.327     0.254     0.031     0.002     0.000     0.029    12.355     0.100     0.003 .00000E+00 0.000E+00 0.000E+00 0.000E+00 0.000E+00 0.000E+00
BIGSUB  11        0    1.50741E+03    59.313    26.017     5.468     4.499    67.339    49.092     0.154    14.885    16.114     0.043     0.095     0.011     0.008     0.000     0.012     0.406     0.008     0.011 .00000E+00 0.000E+00 0.000E+00 0.000E+00 0.000E+00 0.000E+00
BIGSUB  12        0    1.46168E+03    89.846    56.577     1.424     1.327    74.254    54.793     1.653    29.627    59.164     3.585     1.676     0.206     0.001     0.000     0.173    27.059     0.175     0.012 .00000E+00 0.000E+00 0.000E+00 0.000E+00 0.000E+00 0.000E+00
BIGSUB  13        0    1.35104E+03    83.271     6.400     3.420     3.302    60.138    42.970     3.756     8.337    39.916     7.503     2.178     0.270     0.002     0.000     0.219    27.390     0.236     0.002 .00000E+00 0.000E+00 0.000E+00 0.000E+00 0.000E+00 0.000E+00
BIGSUB   1        0    2.49654E+03    10.099     0.000    37.932    17.278    79.428     0.672     0.000     2.333     2.787     0.000     0.000     0.000     0.000     0.000     0.000     0.454     0.003     0.000 .00000E+00 0.000E+00 0.000E+00 0.000E+00 0.000E+00 0.000E+00
BIGSUB   2        0    2.43327E+03    10.096     0.000    36.361    18.837    71.936     0.666     0.000     2.063     2.958     0.000     0.000     0.000     0.000     0.000     0.000     0.824     0.023     0.002 .00000E+00 0.000E+00 0.000E+00 0.000E+00 0.000E+00 0.000E+00
BIGSUB   3        0    2.32812E+03    10.100     0.900    34.898    18.240    31.952     1.513     0.000     3.072     6.498     0.000     0.000     0.000     0.000     0.000     0.000     3.288     0.044     0.001 .00000E+00 0.000E+00 0.000E+00 0.000E+00 0.000E+00 0.000E+00
BIGSUB   4        0    2.83628E+03    10.101     0.900    35.416    19.710    45.602     0.874     0.000     0.895     4.321     0.000     0.000     0.000     0.000     0.000     0.000     3.360     0.086     0.000 .00000E+00 0.000E+00 0.000E+00 0.000E+00 0.000E+00 0.000E+00
BIGSUB   5        0    2.53492E+03    10.104     0.000    37.883    18.842    41.859     1.491     0.000     4.795     6.239     0.000     0.000     0.000     0.000     0.000     0.000     1.279     0.023     0.003 .00000E+00 0.000E+00 0.000E+00 0.000E+00 0.000E+00 0.000E+00
BIGSUB   6        0    2.28785E+03    18.107     0.000    41.117    27.073   148.338     0.068     0.000     0.318     0.573     0.000     0.000     0.000     0.000     0.000     0.000     0.228     0.003     0.000 .00000E+00 0.000E+00 0.000E+00 0.000E+00 0.000E+00 0.000E+00
BIGSUB   7        0    2.51917E+03    18.099     1.300    30.632    23.036   204.298     2.409     0.000     1.396     2.567     0.000     0.000     0.000     0.000     0.000     0.000     1.081     0.021     0.001 .00000E+00 0.000E+00 0.000E+00 0.000E+00 0.000E+00 0.000E+00
BIGSUB   8        0    2.73656E+03    10.100     0.900    35.401    18.645    29.547     1.372     0.017     3.546     6.139     0.000     0.009     0.001     0.000     0.000     0.002     2.454     0.037     0.001 .00000E+00 0.000E+00 0.000E+00 0.000E+00 0.000E+00 0.000E+00
BIGSUB   9        0    2.51556E+03    18.101     1.300    19.485    11.470    68.541     6.119     0.001    29.834    36.671     0.000     0.000     0.000     0.000     0.000     0.000     5.736     0.026     0.009 .00000E+00 0.000E+00 0.000E+00 0.000E+00 0.000E+00 0.000E+00
BIGSUB  10        0    2.53154E+03    18.106     1.300    31.316    17.798    50.807     3.273     0.000    11.990    16.141     0.000     0.000     0.000     0.000     0.000     0.000     3.587     0.016     0.004 .00000E+00 0.000E+00 0.000E+00 0.000E+00 0.000E+00 0.000E+00
BIGSUB  11        0    2.50741E+03    18.099     1.300    31.245    17.236    63.071     5.036     0.000    20.865    21.998     0.000     0.000     0.000     0.000     0.000     0.000     0.312     0.006     0.015 .00000E+00 0.000E+00 0.000E+00 0.000E+00 0.000E+00 0.000E+00
BIGSUB  12        0    2.46168E+03    18.094     1.300    19.510    13.634    70.158     4.842     0.000    31.013    37.955     0.000     0.000     0.000     0.000     0.000     0.000     5.938     0.023     0.010 .00000E+00 0.000E+00 0.000E+00 0.000E+00 0.000E+00 0.000E+00
BIGSUB  13        0    2.35104E+03    18.090     1.800    22.796    14.677    55.753     3.842     0.032    13.816    19.974     0.041     0.017     0.002     0.000     0.000     0.002     5.542     0.031     0.004 .00000E+00 0.000E+00 0.000E+00 0.000E+00 0.000E+00 0.000E+00
BIGSUB   1        0    3.49654E+03    21.199     0.000    84.946    23.278    77.159     0.000     0.000     2.638     2.815     0.000     0.000     0.000     0.000     0.000     0.000     0.177     0.001     0.000 .00000E+00 0.000E+00 0.000E+00 0.000E+00 0.000E+00 0.000E+00
BIGSUB   2        0    3.43327E+03    21.192     0.000    80.571    25.975    66.852     0.000     0.000     2.411     2.781     0.000     0.000     0.000     0.000     0.000     0.000     0.275     0.003     0.001 .00000E+00 0.000E+00 0.000E+00 0.000E+00 0.000E+00 0.000E+00
BIGSUB   3        0    3.32812E+03    21.201     1.800    79.738    23.046    28.515     0.000     0.000     3.916     5.478     0.000     0.000     0.000     0.000     0.000     0.000     1.371     0.003     0.000 .00000E+00 0.000E+00 0.000E+00 0.000E+00 0.000E+00 0.000E+00
BIGSUB   4        0    3.83628E+03    21.202     1.800    81.041    25.337    39.721     0.000     0.000     1.593     3.200     0.000     0.000     0.000     0.000     0.000     0.000     1.509     0.005     0.000 .00000E+00 0.000E+00 0.000E+00 0.000E+00 0.000E+00 0.000E+00
BIGSUB   5        0    3.53492E+03    21.208     0.000    84.941    23.774    38.825     0.000     0.000     5.576     6.223     0.000     0.000     0.000     0.000     0.000     0.000     0.428     0.002     0.002 .00000E+00 0.000E+00 0.000E+00 0.000E+00 0.000E+00 0.000E+00
BIGSUB   6        0    3.28785E+03    35.513     0.000    71.425    32.693   150.858     0.109     0.000     0.414     0.614     0.000     0.000     0.000     0.000     0.000     0.000     0.158     0.001     0.000 .00000E+00 0.000E+00 0.000E+00 0.000E+00 0.000E+00 0.000E+00
BIGSUB   7        0    3.51917E+03    35.498     1.300    52.546    29.320   205.480     0.182     0.000     1.872     2.607     0.000     0.000     0.000     0.000     0.000     0.000     0.587     0.004     0.001 .00000E+00 0.000E+00 0.000E+00 0.000E+00 0.000E+00 0.000E+00
BIGSUB   8        0    3.73656E+03    21.201     1.800    81.025    21.726    25.580     0.447     0.984     3.109     6.106     2.415     0.964     0.118     0.016     0.000     0.144     1.854     0.012     0.000 .00000E+00 0.000E+00 0.000E+00 0.000E+00 0.000E+00 0.000E+00
BIGSUB   9        0    3.51556E+03    35.501     1.300    42.557    19.356    69.333     5.661     0.105    27.015    33.224     0.260     0.167     0.020     0.000     0.000     0.017     4.900     0.013     0.004 .00000E+00 0.000E+00 0.000E+00 0.000E+00 0.000E+00 0.000E+00
BIGSUB  10        0    3.53154E+03    35.513     1.300    53.468    21.522    51.756     5.033     0.053    12.576    16.748     0.048     0.048     0.006     0.001     0.000     0.005     3.473     0.014     0.002 .00000E+00 0.000E+00 0.000E+00 0.000E+00 0.000E+00 0.000E+00
BIGSUB  11        0    3.50741E+03    35.497     1.300    53.337    21.126    65.108     7.969     0.092    20.833    22.026     0.013     0.036     0.004     0.003     0.000     0.005     0.166     0.003     0.008 .00000E+00 0.000E+00 0.000E+00 0.000E+00 0.000E+00 0.000E+00
BIGSUB  12        0    3.46168E+03    36.907     1.352    42.889    23.327    71.044     2.780     0.132    22.757    28.992     0.344     0.152     0.019     0.000     0.000     0.016     5.009     0.008     0.004 .00000E+00 0.000E+00 0.000E+00 0.000E+00 0.000E+00 0.000E+00
BIGSUB  13        0    3.35104E+03    36.900     0.000    50.382    23.788    57.652     3.034     1.659    14.375    22.258     2.392     0.682     0.084     0.008     0.000     0.070     5.555     0.014     0.002 .00000E+00 0.000E+00 0.000E+00 0.000E+00 0.000E+00 0.000E+00
BIGSUB   1        0    4.49654E+03     2.930     0.000    90.768    20.538    59.550     0.000     0.000     0.873     0.915     0.000     0.000     0.000     0.000     0.000     0.000     0.042     0.000     0.000 .00000E+00 0.000E+00 0.000E+00 0.000E+00 0.000E+00 0.000E+00
BIGSUB   2        0    4.43327E+03    29.289     0.000    87.280    36.533    59.240     0.000     0.000     0.737     1.158     0.000     0.000     0.000     0.000     0.000     0.000     0.340     0.003     0.000 .00000E+00 0.000E+00 0.000E+00 0.000E+00 0.000E+00 0.000E+00
BIGSUB   3        0    4.32812E+03    29.301     0.000    89.049    28.596    27.290     0.000     0.000     1.131     3.154     0.000     0.000     0.000     0.000     0.000     0.000     1.858     0.003     0.000 .00000E+00 0.000E+00 0.000E+00 0.000E+00 0.000E+00 0.000E+00
BIGSUB   4        0    4.83628E+03    29.303     0.000    91.308    29.552    37.371     0.000     0.000     0.480     2.595     0.000     0.000     0.000     0.000     0.000     0.000     2.028     0.004     0.000 .00000E+00 0.000E+00 0.000E+00 0.000E+00 0.000E+00 0.000E+00
BIGSUB   5        0    4.53492E+03    29.310     0.000    90.998    29.768    37.795     0.000     0.000     1.703     2.421     0.000     0.000     0.000     0.000     0.000     0.000     0.531     0.001     0.000 .00000E+00 0.000E+00 0.000E+00 0.000E+00 0.000E+00 0.000E+00
BIGSUB   6        0    4.28785E+03    70.527     0.000    92.749    58.349   156.763     5.502     0.201     0.349     1.035     0.079     0.098     0.012     0.000     0.000     0.018     0.444     0.017     0.000 .00000E+00 0.000E+00 0.000E+00 0.000E+00 0.000E+00 0.000E+00
BIGSUB   7        0    4.51917E+03    70.495    13.800    71.195    46.410   210.520    19.441     0.714     1.458     4.726     0.426     0.618     0.075     0.001     0.000     0.092     2.404     0.030     0.000 .00000E+00 0.000E+00 0.000E+00 0.000E+00 0.000E+00 0.000E+00
BIGSUB   8        0    4.73656E+03    29.301     0.000    91.299    28.521    23.514     0.077     0.141     0.800     3.670     0.209     0.086     0.011     0.001     0.000     0.014     2.590     0.008     0.000 .00000E+00 0.000E+00 0.000E+00 0.000E+00 0.000E+00 0.000E+00
BIGSUB   9        0    4.51556E+03    70.502    13.800    65.065    30.442    67.087    24.949     5.629    19.225    41.535    13.739     8.333     1.021     0.003     0.001     0.884    15.640     0.072     0.002 .00000E+00 0.000E+00 0.000E+00 0.000E+00 0.000E+00 0.000E+00
BIGSUB  10        0    4.53154E+03    70.525    13.800    72.269    34.613    50.694    24.035     5.151    10.014    27.436     7.362     6.072     0.743     0.005     0.001     0.696    11.681     0.072     0.002 .00000E+00 0.000E+00 0.000E+00 0.000E+00 0.000E+00 0.000E+00
BIGSUB  11        0    4.50741E+03    70.495    13.800    72.063    33.628    62.558    37.220     5.708    17.121    24.069     1.428     3.374     0.408     0.017     0.002     0.449     0.375     0.009     0.007 .00000E+00 0.000E+00 0.000E+00 0.000E+00 0.000E+00 0.000E+00
BIGSUB  12        0    4.46168E+03   133.904    22.497    63.361    36.248    68.823    44.905    28.268    15.939    75.443   115.394    28.262     3.464     0.006     0.002     2.936    30.270     0.127     0.002 .00000E+00 0.000E+00 0.000E+00 0.000E+00 0.000E+00 0.000E+00
BIGSUB  13        0    4.35104E+03   133.877     0.000    74.221    38.639    55.546    25.965    48.451    11.593    83.698   197.887    18.784     2.319     0.050     0.003     1.944    23.046     0.120     0.001 .00000E+00 0.000E+00 0.000E+00 0.000E+00 0.000E+00 0.000E+00
BIGSUB   1        0    5.49654E+03    51.397     0.000    99.506    34.568    74.117     1.645     0.000     0.057     0.584     0.000     0.000     0.000     0.000     0.000     0.000     0.527     0.001     0.000 .00000E+00 0.000E+00 0.000E+00 0.000E+00 0.000E+00 0.000E+00
BIGSUB   2        0    5.43327E+03    51.381     0.000    96.037    41.771    65.980     1.890     0.001     0.074     1.085     0.000     0.000     0.000     0.000     0.000     0.000     0.941     0.005     0.000 .00000E+00 0.000E+00 0.000E+00 0.000E+00 0.000E+00 0.000E+00
BIGSUB   3        0    5.32812E+03    51.401     3.600    95.799    36.641    34.443     2.951     0.000     0.084     4.874     0.000     0.000     0.000     0.000     0.000     0.000     4.650     0.006     0.000 .00000E+00 0.000E+00 0.000E+00 0.000E+00 0.000E+00 0.000E+00
BIGSUB   4        0    5.83628E+03    51.405     3.600    99.667    37.943    45.381     0.742     0.000     0.000     4.801     0.000     0.000     0.000     0.000     0.000     0.000     4.728     0.007     0.000 .00000E+00 0.000E+00 0.000E+00 0.000E+00 0.000E+00 0.000E+00
BIGSUB   5        0    5.53492E+03    51.418     0.000    99.910    38.498    44.311     4.878     0.001     0.202     1.821     0.000     0.000     0.000     0.000     0.000     0.000     1.458     0.005     0.000 .00000E+00 0.000E+00 0.000E+00 0.000E+00 0.000E+00 0.000E+00
BIGSUB   6        0    5.28785E+03    61.523     0.000    89.268    59.056   155.172     3.580     0.057     0.766     1.375     0.024     0.031     0.004     0.000     0.000     0.006     0.481     0.003     0.000 .00000E+00 0.000E+00 0.000E+00 0.000E+00 0.000E+00 0.000E+00
BIGSUB   7        0    5.51917E+03    61.496     5.400    70.428    44.594   213.211    11.901     0.167     3.455     6.393     0.176     0.217     0.026     0.000     0.000     0.033     2.514     0.032     0.002 .00000E+00 0.000E+00 0.000E+00 0.000E+00 0.000E+00 0.000E+00
BIGSUB   8        0    5.73656E+03    51.401     3.600    99.660    37.432    26.965     3.095     2.037     0.178     7.708     1.745     0.860     0.105     0.004     0.000     0.143     5.373     0.012     0.000 .00000E+00 0.000E+00 0.000E+00 0.000E+00 0.000E+00 0.000E+00
BIGSUB   9        0    5.51556E+03    61.502     5.400    70.287    34.479    67.329    13.619     1.921    18.263    32.971     1.822     1.062     0.130     0.002     0.000     0.112    11.762     0.034     0.002 .00000E+00 0.000E+00 0.000E+00 0.000E+00 0.000E+00 0.000E+00
BIGSUB  10        0    5.53154E+03    61.522     5.400    70.799    33.534    51.346    16.638     1.657    12.463    24.160     1.503     1.204     0.147     0.004     0.000     0.140     9.380     0.051     0.003 .00000E+00 0.000E+00 0.000E+00 0.000E+00 0.000E+00 0.000E+00
BIGSUB  11        0    5.50741E+03    61.495     5.400    70.528    32.779    63.023    25.634     2.245    20.813    24.499     0.338     0.921     0.111     0.016     0.001     0.124     0.460     0.009     0.013 .00000E+00 0.000E+00 0.000E+00 0.000E+00 0.000E+00 0.000E+00
BIGSUB  12        0    5.46168E+03   153.697    13.500    71.136    45.097    69.208    47.002    27.468    25.530    88.376    69.030     3.281     0.402     0.008     0.001     0.350    34.263     0.115     0.006 .00000E+00 0.000E+00 0.000E+00 0.000E+00 0.000E+00 0.000E+00
BIGSUB  13        0    5.35104E+03   153.666     0.000    80.358    48.456    55.403    30.611    47.263    14.726    90.424   248.957     5.137     0.631     0.031     0.002     0.523    27.740     0.134     0.003 .00000E+00 0.000E+00 0.000E+00 0.000E+00 0.000E+00 0.000E+00
BIGSUB   1        0    6.49654E+03    87.694     0.000   116.324    58.345    82.460    19.183     0.000     2.572     4.313     0.000     0.000     0.000     0.000     0.000     0.000     1.741     0.017     0.001 .00000E+00 0.000E+00 0.000E+00 0.000E+00 0.000E+00 0.000E+00
BIGSUB   2        0    6.43327E+03    87.667     0.000   110.467    61.680    78.554    10.286     0.108     2.395     5.503     0.011     0.026     0.003     0.000     0.000     0.005     2.912     0.048     0.001 .00000E+00 0.000E+00 0.000E+00 0.000E+00 0.000E+00 0.000E+00
BIGSUB   3        0    6.32812E+03    87.702     0.300   114.897    57.001    29.663    22.677     0.070     4.140    17.073     0.011     0.029     0.004     0.000     0.000     0.004    12.686     0.090     0.001 .00000E+00 0.000E+00 0.000E+00 0.000E+00 0.000E+00 0.000E+00
BIGSUB   4        0    6.83628E+03    87.709     0.300   119.865    64.012    44.671    11.944     0.045     1.424    13.887     0.005     0.018     0.002     0.000     0.000     0.002    12.331     0.147     0.001 .00000E+00 0.000E+00 0.000E+00 0.000E+00 0.000E+00 0.000E+00
BIGSUB   5        0    6.53492E+03    87.731     0.000   116.667    55.642    47.070    24.578     0.172     5.906    10.685     0.015     0.040     0.005     0.000     0.000     0.007     4.398     0.044     0.002 .00000E+00 0.000E+00 0.000E+00 0.000E+00 0.000E+00 0.000E+00
BIGSUB   6        0    6.28785E+03    73.028     0.000   117.202    70.561   138.716    17.646     0.547     1.317     2.779     0.348     0.454     0.056     0.000     0.000     0.075     0.747     0.006     0.000 .00000E+00 0.000E+00 0.000E+00 0.000E+00 0.000E+00 0.000E+00
BIGSUB   7        0    6.51917E+03    72.995     4.600    89.858    51.443   197.166    32.959     1.018    12.157    17.493     0.912     1.176     0.143     0.000     0.000     0.177     3.852     0.057     0.015 .00000E+00 0.000E+00 0.000E+00 0.000E+00 0.000E+00 0.000E+00
BIGSUB   8        0    6.73656E+03    87.702     0.300   119.858    61.761    21.280    10.362    11.027     2.539    24.007    12.988     5.522     0.676     0.009     0.002     0.914    10.308     0.057     0.000 .00000E+00 0.000E+00 0.000E+00 0.000E+00 0.000E+00 0.000E+00
BIGSUB   9        0    6.51556E+03    73.002     4.600    78.610    37.129    55.291    26.297     5.534    19.898    42.831    13.208     4.894     0.599     0.000     0.001     0.531    16.372     0.065     0.003 .00000E+00 0.000E+00 0.000E+00 0.000E+00 0.000E+00 0.000E+00
BIGSUB  10        0    6.53154E+03    73.026     4.600    90.219    37.210    40.639    28.035     5.484    17.502    36.994    13.322     7.562     0.925     0.002     0.001     0.892    13.221     0.088     0.006 .00000E+00 0.000E+00 0.000E+00 0.000E+00 0.000E+00 0.000E+00
BIGSUB  11        0    6.50741E+03    72.994     4.600    89.987    36.086    53.960    39.703     5.699    27.816    35.319     2.533     5.021     0.607     0.006     0.002     0.680     0.636     0.012     0.027 .00000E+00 0.000E+00 0.000E+00 0.000E+00 0.000E+00 0.000E+00
BIGSUB  12        0    6.46168E+03    78.813     4.968    79.444    45.534    52.965    24.204     6.888    36.917    64.387    15.838     0.412     0.050     0.000     0.000     0.043    19.229     0.049     0.010 .00000E+00 0.000E+00 0.000E+00 0.000E+00 0.000E+00 0.000E+00
BIGSUB  13        0    6.35104E+03    78.797    18.360    86.632    44.198    39.909    18.153    15.495    20.761    54.300    36.005     0.514     0.063     0.005     0.000     0.052    17.186     0.079     0.006 .00000E+00 0.000E+00 0.000E+00 0.000E+00 0.000E+00 0.000E+00
BIGSUB   1        0    7.49654E+03     7.500     0.000   144.397    20.735    69.181     0.000     0.000     4.899     5.091     0.000     0.000     0.000     0.000     0.000     0.000     0.193     0.004     0.003 .00000E+00 0.000E+00 0.000E+00 0.000E+00 0.000E+00 0.000E+00
BIGSUB   2        0    7.43327E+03     7.497     0.000   137.748    24.279    61.706     0.000     0.000     4.421     4.834     0.000     0.000     0.000     0.000     0.000     0.000     0.274     0.004     0.002 .00000E+00 0.000E+00 0.000E+00 0.000E+00 0.000E+00 0.000E+00
BIGSUB   3        0    7.32812E+03     7.500     0.000   140.273    20.320    15.920     0.000     0.000     9.040     9.997     0.000     0.000     0.000     0.000     0.000     0.000     0.667     0.005     0.001 .00000E+00 0.000E+00 0.000E+00 0.000E+00 0.000E+00 0.000E+00
BIGSUB   4        0    7.83628E+03     7.501     0.000   144.603    26.114    25.127     0.000     0.000     3.976     4.840     0.000     0.000     0.000     0.000     0.000     0.000     0.719     0.009     0.001 .00000E+00 0.000E+00 0.000E+00 0.000E+00 0.000E+00 0.000E+00
BIGSUB   5        0    7.53492E+03     7.503     0.000   144.727    20.508    33.980     0.000     0.000    10.682    11.436     0.000     0.000     0.000     0.000     0.000     0.000     0.421     0.004     0.003 .00000E+00 0.000E+00 0.000E+00 0.000E+00 0.000E+00 0.000E+00
BIGSUB   6        0    7.28785E+03     0.600     0.000   157.342    37.134   102.196     0.000     0.000     1.235     1.587     0.000     0.000     0.000     0.000     0.000     0.000     0.101     0.001     0.000 .00000E+00 0.000E+00 0.000E+00 0.000E+00 0.000E+00 0.000E+00
BIGSUB   7        0    7.51917E+03     0.600     0.000   120.742    24.008   173.756     0.000     0.000    14.237    15.047     0.000     0.000     0.000     0.000     0.000     0.000     0.190     0.004     0.010 .00000E+00 0.000E+00 0.000E+00 0.000E+00 0.000E+00 0.000E+00
BIGSUB   8        0    7.73656E+03     7.500     0.000   144.593    18.464     9.183     0.000     0.000     3.821     4.663     0.000     0.000     0.000     0.000     0.000     0.000     0.662     0.004     0.000 .00000E+00 0.000E+00 0.000E+00 0.000E+00 0.000E+00 0.000E+00
BIGSUB   9        0    7.51556E+03     0.600     0.000    95.496    21.696    34.195     0.000     0.000    16.252    17.303     0.000     0.000     0.000     0.000     0.000     0.000     0.022     0.000     0.001 .00000E+00 0.000E+00 0.000E+00 0.000E+00 0.000E+00 0.000E+00
BIGSUB  10        0    7.53154E+03     0.600     0.000   118.627    13.307    27.937     0.000     0.000    17.032    17.929     0.000     0.000     0.000     0.000     0.000     0.000     0.036     0.000     0.004 .00000E+00 0.000E+00 0.000E+00 0.000E+00 0.000E+00 0.000E+00
BIGSUB  11        0    7.50741E+03     0.600     0.000   118.345    11.085    43.474     0.000     0.000    27.721    29.136     0.000     0.000     0.000     0.000     0.000     0.000     0.141     0.002     0.015 .00000E+00 0.000E+00 0.000E+00 0.000E+00 0.000E+00 0.000E+00
BIGSUB  12        0    7.46168E+03     0.624     0.000    96.530    26.341    27.238     0.000     0.000    24.158    25.586     0.000     0.000     0.000     0.000     0.000     0.000     0.019     0.000     0.003 .00000E+00 0.000E+00 0.000E+00 0.000E+00 0.000E+00 0.000E+00
BIGSUB  13        0    7.35104E+03     0.624     0.000   108.287    21.506    19.016     0.000     0.000    15.474    16.414     0.000     0.000     0.000     0.000     0.000     0.000     0.028     0.000     0.002 .00000E+00 0.000E+00 0.000E+00 0.000E+00 0.000E+00 0.000E+00
BIGSUB   1        0    8.49654E+03     0.300     0.000   146.252     9.411    60.070     0.000     0.000     2.209     2.233     0.000     0.000     0.000     0.000     0.000     0.000     0.024     0.001     0.001 .00000E+00 0.000E+00 0.000E+00 0.000E+00 0.000E+00 0.000E+00
BIGSUB   2        0    8.43327E+03     0.300     0.000   140.568     9.630    52.373     0.000     0.000     1.753     1.919     0.000     0.000     0.000     0.000     0.000     0.000     0.032     0.000     0.000 .00000E+00 0.000E+00 0.000E+00 0.000E+00 0.000E+00 0.000E+00
BIGSUB   3        0    8.32812E+03     0.300     0.900   144.377     9.576     7.245     0.000     0.000     3.138     3.452     0.000     0.000     0.000     0.000     0.000     0.000     0.031     0.000     0.000 .00000E+00 0.000E+00 0.000E+00 0.000E+00 0.000E+00 0.000E+00
BIGSUB   4        0    8.83628E+03     0.300     0.900   149.406    13.363    12.665     0.000     0.000     1.260     1.435     0.000     0.000     0.000     0.000     0.000     0.000     0.033     0.001     0.000 .00000E+00 0.000E+00 0.000E+00 0.000E+00 0.000E+00 0.000E+00
BIGSUB   5        0    8.53492E+03     0.300     0.000   146.426     9.178    25.106     0.000     0.000     4.300     4.660     0.000     0.000     0.000     0.000     0.000     0.000     0.038     0.000     0.001 .00000E+00 0.000E+00 0.000E+00 0.000E+00 0.000E+00 0.000E+00
BIGSUB   6        0    8.28785E+03     6.654     0.000   135.223    16.828    92.013     0.000     0.000     0.780     1.055     0.000     0.000     0.000     0.000     0.000     0.000     0.043     0.000     0.000 .00000E+00 0.000E+00 0.000E+00 0.000E+00 0.000E+00 0.000E+00
BIGSUB   7        0    8.51917E+03    10.237     4.600    92.127    15.698   162.627     0.000     0.000     5.016     5.627     0.000     0.000     0.000     0.000     0.000     0.000     0.055     0.001     0.002 .00000E+00 0.000E+00 0.000E+00 0.000E+00 0.000E+00 0.000E+00
BIGSUB   8        0    8.73656E+03     0.300     0.900   149.391     7.031     3.041     0.000     0.000     0.714     0.932     0.000     0.000     0.000     0.000     0.000     0.000     0.052     0.000     0.000 .00000E+00 0.000E+00 0.000E+00 0.000E+00 0.000E+00 0.000E+00
BIGSUB   9        0    8.51556E+03    20.181     4.600    65.260    11.686    26.638     0.000     0.000     5.880     7.200     0.000     0.000     0.000     0.000     0.000     0.000     0.471     0.003     0.000 .00000E+00 0.000E+00 0.000E+00 0.000E+00 0.000E+00 0.000E+00
BIGSUB  10        0    8.53154E+03    10.871     4.600    91.342     8.968    23.285     0.000     0.000     4.048     5.072     0.000     0.000     0.000     0.000     0.000     0.000     0.291     0.002     0.000 .00000E+00 0.000E+00 0.000E+00 0.000E+00 0.000E+00 0.000E+00
BIGSUB  11        0    8.50741E+03    10.867     4.600    91.189     6.041    42.020     0.000     0.000    11.044    12.180     0.000     0.000     0.000     0.000     0.000     0.000     0.052     0.001     0.003 .00000E+00 0.000E+00 0.000E+00 0.000E+00 0.000E+00 0.000E+00
BIGSUB  12        0    8.46168E+03    20.174     4.600    65.858    10.903    20.418     0.000     0.000     4.484     6.176     0.000     0.000     0.000     0.000     0.000     0.000     0.513     0.003     0.000 .00000E+00 0.000E+00 0.000E+00 0.000E+00 0.000E+00 0.000E+00
BIGSUB  13        0    8.35104E+03    12.683     0.000    89.554    16.602    13.086     0.000     0.000     6.047     8.791     0.000     0.000     0.000     0.000     0.000     0.000     1.977     0.017     0.000 .00000E+00 0.000E+00 0.000E+00 0.000E+00 0.000E+00 0.000E+00
BIGSUB   1        0    9.49654E+03    25.298     0.000   109.021    19.312    65.786     0.000     0.000     0.098     0.340     0.000     0.000     0.000     0.000     0.000     0.000     0.242     0.001     0.000 .00000E+00 0.000E+00 0.000E+00 0.000E+00 0.000E+00 0.000E+00
BIGSUB   2        0    9.43327E+03    25.290     0.000   104.509    17.467    59.810     0.000     0.000     0.067     0.529     0.000     0.000     0.000     0.000     0.000     0.000     0.354     0.003     0.000 .00000E+00 0.000E+00 0.000E+00 0.000E+00 0.000E+00 0.000E+00
BIGSUB   3        0    9.32812E+03    25.301     0.000   101.182    16.208    14.348     0.000     0.000     0.104     2.243     0.000     0.000     0.000     0.000     0.000     0.000     1.911     0.023     0.000 .00000E+00 0.000E+00 0.000E+00 0.000E+00 0.000E+00 0.000E+00
BIGSUB   4        0    9.83628E+03    25.303     0.000   102.744    16.360    19.463     0.000     0.000     0.032     2.200     0.000     0.000     0.000     0.000     0.000     0.000     2.054     0.032     0.000 .00000E+00 0.000E+00 0.000E+00 0.000E+00 0.000E+00 0.000E+00
BIGSUB   5        0    9.53492E+03    25.309     0.000   108.949    17.614    32.188     0.000     0.000     0.163     0.974     0.000     0.000     0.000     0.000     0.000     0.000     0.554     0.006     0.000 .00000E+00 0.000E+00 0.000E+00 0.000E+00 0.000E+00 0.000E+00
BIGSUB   6        0    9.28785E+03    21.508     0.000    93.960    17.113    96.313     0.000     0.000     0.079     0.348     0.000     0.000     0.000     0.000     0.000     0.000     0.087     0.000     0.000 .00000E+00 0.000E+00 0.000E+00 0.000E+00 0.000E+00 0.000E+00
BIGSUB   7        0    9.51917E+03    21.499     6.938    69.131    21.240   167.970     0.000     0.000     0.580     1.532     0.000     0.000     0.000     0.000     0.000     0.000     0.520     0.001     0.000 .00000E+00 0.000E+00 0.000E+00 0.000E+00 0.000E+00 0.000E+00
BIGSUB   8        0    9.73656E+03    25.301     0.000   102.728    16.319     6.567     1.830     0.847     0.098     3.794     0.243     0.451     0.055     0.000     0.000     0.068     2.716     0.017     0.000 .00000E+00 0.000E+00 0.000E+00 0.000E+00 0.000E+00 0.000E+00
BIGSUB   9        0    9.51556E+03    21.501    16.881    48.858    17.743    37.825     1.900     0.169     0.853     7.736     0.172     0.100     0.012     0.000     0.000     0.010     6.068     0.007     0.000 .00000E+00 0.000E+00 0.000E+00 0.000E+00 0.000E+00 0.000E+00
BIGSUB  10        0    9.53154E+03    21.508     7.567    67.494    17.389    30.274     0.797     0.000     0.256     3.401     0.000     0.000     0.000     0.000     0.000     0.000     2.585     0.005     0.000 .00000E+00 0.000E+00 0.000E+00 0.000E+00 0.000E+00 0.000E+00
BIGSUB  11        0    9.50741E+03    21.498     7.567    67.366    20.150    49.547     0.000     0.000     0.416     1.322     0.000     0.000     0.000     0.000     0.000     0.000     0.081     0.001     0.000 .00000E+00 0.000E+00 0.000E+00 0.000E+00 0.000E+00 0.000E+00
BIGSUB  12        0    9.46168E+03    21.493    16.881    49.266    21.424    29.717     0.009     0.085     0.885     8.112     0.193     0.009     0.001     0.000     0.000     0.001     6.251     0.005     0.000 .00000E+00 0.000E+00 0.000E+00 0.000E+00 0.000E+00 0.000E+00
BIGSUB  13        0    9.35104E+03    21.488     0.000    56.164    17.865    13.188     0.000     0.000     0.298     4.430     0.000     0.000     0.000     0.000     0.000     0.000     3.551     0.006     0.000 .00000E+00 0.000E+00 0.000E+00 0.000E+00 0.000E+00 0.000E+00
BIGSUB   1        0   10.49654E+03    32.598     0.000    59.125    17.603    79.606     0.780     0.000     0.000     0.304     0.000     0.000     0.000     0.000     0.000     0.000     0.304     0.002     0.000 .00000E+00 0.000E+00 0.000E+00 0.000E+00 0.000E+00 0.000E+00
BIGSUB   2        0   10.43327E+03    32.588     0.000    57.964    15.804    75.556     0.477     0.000     0.000     0.529     0.000     0.000     0.000     0.000     0.000     0.000     0.442     0.001     0.000 .00000E+00 0.000E+00 0.000E+00 0.000E+00 0.000E+00 0.000E+00
BIGSUB   3        0   10.32812E+03    32.601     0.000    58.264    15.009    28.801     0.250     0.000     0.000     2.548     0.000     0.000     0.000     0.000     0.000     0.000     2.365     0.003     0.000 .00000E+00 0.000E+00 0.000E+00 0.000E+00 0.000E+00 0.000E+00
BIGSUB   4        0   10.83628E+03    32.603     0.000    58.279    14.445    34.551     0.000     0.000     0.000     2.632     0.000     0.000     0.000     0.000     0.000     0.000     2.540     0.004     0.000 .00000E+00 0.000E+00 0.000E+00 0.000E+00 0.000E+00 0.000E+00
BIGSUB   5        0   10.53492E+03    32.612     0.000    59.019    16.484    46.588     0.853     0.000     0.000     0.896     0.000     0.000     0.000     0.000     0.000     0.000     0.689     0.001     0.000 .00000E+00 0.000E+00 0.000E+00 0.000E+00 0.000E+00 0.000E+00
BIGSUB   6        0   10.28785E+03    50.019     0.000    58.316    15.381   130.584     0.000     0.000     0.000     0.398     0.000     0.000     0.000     0.000     0.000     0.000     0.253     0.003     0.000 .00000E+00 0.000E+00 0.000E+00 0.000E+00 0.000E+00 0.000E+00
BIGSUB   7        0   10.51917E+03    49.997     1.300    44.733    17.910   198.626     0.042     0.000     0.000     1.400     0.000     0.000     0.000     0.000     0.000     0.000     1.056     0.000     0.000 .00000E+00 0.000E+00 0.000E+00 0.000E+00 0.000E+00 0.000E+00
BIGSUB   8        0   10.73656E+03    32.601     0.000    58.262    14.997    18.736     1.772     0.005     0.569     3.910     0.000     0.001     0.000     0.000     0.000     0.000     3.218     0.006     0.000 .00000E+00 0.000E+00 0.000E+00 0.000E+00 0.000E+00 0.000E+00
BIGSUB   9        0   10.51556E+03    50.002     1.300    26.073    12.029    59.665     6.943     0.163     1.035     9.735     0.108     0.084     0.010     0.000     0.000     0.009     8.015     0.004     0.000 .00000E+00 0.000E+00 0.000E+00 0.000E+00 0.000E+00 0.000E+00
BIGSUB  10        0   10.53154E+03    50.018     1.300    43.537    14.804    48.059    10.190     0.151     0.545     7.481     0.090     0.097     0.012     0.000     0.000     0.015     6.330     0.014     0.000 .00000E+00 0.000E+00 0.000E+00 0.000E+00 0.000E+00 0.000E+00
BIGSUB  11        0   10.50741E+03    49.996     1.300    43.466    18.979    65.745    14.099     0.409     0.043     1.261     0.168     0.309     0.038     0.000     0.000     0.042     0.155     0.001     0.000 .00000E+00 0.000E+00 0.000E+00 0.000E+00 0.000E+00 0.000E+00
BIGSUB  12        0   10.46168E+03    49.983     1.300    26.192    13.772    54.724     1.879     0.066     0.099     9.187     0.054     0.006     0.001     0.000     0.000     0.001     8.322     0.002     0.000 .00000E+00 0.000E+00 0.000E+00 0.000E+00 0.000E+00 0.000E+00
BIGSUB  13        0   10.35104E+03    49.973     0.000    28.826    12.940    37.242     2.334     0.456     0.006    10.067     0.381     0.030     0.004     0.000     0.000     0.003     9.147     0.004     0.000 .00000E+00 0.000E+00 0.000E+00 0.000E+00 0.000E+00 0.000E+00
BIGSUB   1        0   11.49654E+03    46.297     2.500    30.231    19.339    98.880     6.790     0.000     1.163     2.084     0.000     0.000     0.000     0.000     0.000     0.000     0.921     0.008     0.001 .00000E+00 0.000E+00 0.000E+00 0.000E+00 0.000E+00 0.000E+00
BIGSUB   2        0   11.43327E+03    46.283     2.500    29.427    19.381    94.966     6.064     0.007     0.911     2.456     0.000     0.001     0.000     0.000     0.000     0.000     1.461     0.005     0.000 .00000E+00 0.000E+00 0.000E+00 0.000E+00 0.000E+00 0.000E+00
BIGSUB   3        0   11.32812E+03    46.301     5.900    29.138    19.840    38.203    11.097     0.000     1.174     7.642     0.000     0.000     0.000     0.000     0.000     0.000     6.314     0.004     0.000 .00000E+00 0.000E+00 0.000E+00 0.000E+00 0.000E+00 0.000E+00
BIGSUB   4        0   11.83628E+03    46.305     5.900    28.154    19.247    51.576     4.423     0.000     0.308     6.345     0.000     0.000     0.000     0.000     0.000     0.000     5.964     0.014     0.000 .00000E+00 0.000E+00 0.000E+00 0.000E+00 0.000E+00 0.000E+00
BIGSUB   5        0   11.53492E+03    46.317     2.500    30.116    20.257    56.563    13.886     0.009     2.028     4.443     0.000     0.001     0.000     0.003     0.000     0.000     2.223     0.005     0.000 .00000E+00 0.000E+00 0.000E+00 0.000E+00 0.000E+00 0.000E+00
BIGSUB   6        0   11.28785E+03    49.519     4.600    29.344    19.849   158.682     1.109     0.000     0.036     0.575     0.000     0.000     0.000     0.000     0.000     0.000     0.432     0.005     0.000 .00000E+00 0.000E+00 0.000E+00 0.000E+00 0.000E+00 0.000E+00
BIGSUB   7        0   11.51917E+03    49.497     1.300    21.169    17.634   217.646    10.614     0.000     0.418     2.838     0.000     0.000     0.000     0.000     0.000     0.000     2.163     0.008     0.000 .00000E+00 0.000E+00 0.000E+00 0.000E+00 0.000E+00 0.000E+00
BIGSUB   8        0   11.73656E+03    46.301     5.900    28.135    21.835    29.628     5.636     1.951     1.888    10.249     1.608     0.889     0.109     0.000     0.000     0.146     6.297     0.024     0.000 .00000E+00 0.000E+00 0.000E+00 0.000E+00 0.000E+00 0.000E+00
BIGSUB   9        0   11.51556E+03    49.502     1.300    10.718     8.147    67.856    21.107     0.001     3.420    16.648     0.001     0.000     0.000     0.000     0.000     0.000    12.773     0.042     0.000 .00000E+00 0.000E+00 0.000E+00 0.000E+00 0.000E+00 0.000E+00
BIGSUB  10        0   11.53154E+03    49.518     1.300    21.918    14.504    53.197    20.602     0.000     3.558    13.759     0.000     0.000     0.000     0.000     0.000     0.000     9.779     0.026     0.000 .00000E+00 0.000E+00 0.000E+00 0.000E+00 0.000E+00 0.000E+00
BIGSUB  11        0   11.50741E+03    49.496     1.300    21.855    16.297    64.947    33.542     0.001     4.882     5.901     0.000     0.000     0.000     0.000     0.000     0.000     0.412     0.002     0.001 .00000E+00 0.000E+00 0.000E+00 0.000E+00 0.000E+00 0.000E+00
BIGSUB  12        0   11.46168E+03    49.483     1.300    10.635     9.170    68.630    14.359     0.001     1.932    15.222     0.001     0.000     0.000     0.000     0.000     0.000    12.753     0.015     0.000 .00000E+00 0.000E+00 0.000E+00 0.000E+00 0.000E+00 0.000E+00
BIGSUB  13        0   11.35104E+03    49.473     0.000    14.025    11.038    53.352    10.717     0.382     1.224    14.011     0.502     0.016     0.002     0.000     0.000     0.002    12.043     0.009     0.000 .00000E+00 0.000E+00 0.000E+00 0.000E+00 0.000E+00 0.000E+00
BIGSUB   1        0   12.49654E+03    71.695     3.000    17.540    13.739   122.662    32.156     0.000     4.404     6.049     0.000     0.000     0.000     0.000     0.000     0.000     1.645     0.020     0.003 .00000E+00 0.000E+00 0.000E+00 0.000E+00 0.000E+00 0.000E+00
BIGSUB   2        0   12.43327E+03    71.673     3.000    16.725    13.799   131.101    17.697     0.588     3.941     7.430     0.048     0.104     0.013     0.000     0.000     0.019     2.775     0.050     0.001 .00000E+00 0.000E+00 0.000E+00 0.000E+00 0.000E+00 0.000E+00
BIGSUB   3        0   12.32812E+03    71.702     6.200    18.109    15.083    51.033    27.288     1.205     7.394    21.199     0.103     0.307     0.038     0.000     0.000     0.048    12.360     0.218     0.000 .00000E+00 0.000E+00 0.000E+00 0.000E+00 0.000E+00 0.000E+00
BIGSUB   4        0   12.83628E+03    71.707     6.200    17.500    15.242    74.866    16.083     0.749     3.293    17.217     0.057     0.215     0.026     0.000     0.000     0.030    13.061     0.362     0.001 .00000E+00 0.000E+00 0.000E+00 0.000E+00 0.000E+00 0.000E+00
BIGSUB   5        0   12.53492E+03    71.726     3.000    17.416    14.485    78.837    28.845     0.922     8.958    14.314     0.055     0.150     0.018     0.000     0.000     0.027     4.150     0.050     0.002 .00000E+00 0.000E+00 0.000E+00 0.000E+00 0.000E+00 0.000E+00
BIGSUB   6        0   12.28785E+03    97.737    10.200    17.663    14.020   193.488    46.567     0.872     4.283     6.405     0.492     0.632     0.077     0.000     0.000     0.103     1.075     0.015     0.002 .00000E+00 0.000E+00 0.000E+00 0.000E+00 0.000E+00 0.000E+00
BIGSUB   7        0   12.51917E+03    97.693     0.000    12.978    11.967   218.825    76.241     1.271    13.738    21.376     1.094     1.297     0.158     0.001     0.000     0.197     5.940     0.062     0.011 .00000E+00 0.000E+00 0.000E+00 0.000E+00 0.000E+00 0.000E+00
BIGSUB   8        0   12.73656E+03    71.702     6.200    17.488    15.653    43.333    18.099    12.807     4.384    27.593    10.348     3.920     0.480     0.007     0.002     0.666    10.237     0.188     0.000 .00000E+00 0.000E+00 0.000E+00 0.000E+00 0.000E+00 0.000E+00
BIGSUB   9        0   12.51556E+03    97.703     0.000     3.421     2.967    70.291    57.979     5.350    12.684    46.678     9.661     2.675     0.327     0.000     0.001     0.295    28.010     0.139     0.002 .00000E+00 0.000E+00 0.000E+00 0.000E+00 0.000E+00 0.000E+00
BIGSUB  10        0   12.53154E+03    97.735     0.000    13.206    10.465    53.709    57.952     5.318    12.720    41.454    11.097     4.394     0.538     0.001     0.001     0.554    22.792     0.078     0.003 .00000E+00 0.000E+00 0.000E+00 0.000E+00 0.000E+00 0.000E+00
BIGSUB  11        0   12.50741E+03    97.692     0.000    13.194    11.124    65.331    79.804     5.267    20.435    27.373     1.684     2.908     0.355     0.005     0.000     0.395     0.753     0.002     0.005 .00000E+00 0.000E+00 0.000E+00 0.000E+00 0.000E+00 0.000E+00
BIGSUB  12        0   12.46168E+03    97.666     0.000     3.303     3.205    72.745    53.527     5.373    12.702    49.211    15.096     0.235     0.029     0.000     0.000     0.025    30.515     0.102     0.001 .00000E+00 0.000E+00 0.000E+00 0.000E+00 0.000E+00 0.000E+00
BIGSUB  13        0   12.35104E+03    97.647     0.000     5.909     5.625    59.032    43.252    13.414     6.368    49.139    35.650     0.408     0.052     0.001     0.000     0.039    28.913     0.173     0.001 .00000E+00 0.000E+00 0.000E+00 0.000E+00 0.000E+00 0.000E+00
BIGSUB   1        0 2010.49654E+03   408.704     7.300   954.026   266.377   122.662    69.934     0.000    21.285    28.404     0.000     0.000     0.000     0.000     0.000     0.000     7.118     0.067     0.009 .00000E+00 0.000E+00 0.000E+00 0.000E+00 0.000E+00 0.000E+00
BIGSUB   2        0 2010.43327E+03   434.936     7.300   915.804   298.304   131.101    45.609     0.714    18.844    32.718     0.060     0.132     0.016     0.000     0.000     0.024    12.052     0.178     0.008 .00000E+00 0.000E+00 0.000E+00 0.000E+00 0.000E+00 0.000E+00
BIGSUB   3        0 2010.32812E+03   435.111    30.200   924.243   272.865    51.033    83.594     1.275    33.299    90.723     0.115     0.336     0.041     0.000     0.000     0.052    53.905     0.440     0.003 .00000E+00 0.000E+00 0.000E+00 0.000E+00 0.000E+00 0.000E+00
BIGSUB   4        0 2010.83628E+03   435.145    30.200   945.820   294.590    74.866    43.754     0.794    13.260    69.736     0.062     0.232     0.028     0.000     0.000     0.033    54.566     0.763     0.004 .00000E+00 0.000E+00 0.000E+00 0.000E+00 0.000E+00 0.000E+00
BIGSUB   5        0 2010.53492E+03   435.256     7.300   954.963   278.010    78.837    94.372     1.118    44.422    66.501     0.071     0.192     0.024     0.004     0.000     0.035    18.359     0.169     0.014 .00000E+00 0.000E+00 0.000E+00 0.000E+00 0.000E+00 0.000E+00
BIGSUB   6        0 2010.28785E+03   539.607    16.800   912.673   376.299   193.488    78.963     1.677     9.577    17.178     0.944     1.214     0.149     0.000     0.000     0.202     4.474     0.064     0.002 .00000E+00 0.000E+00 0.000E+00 0.000E+00 0.000E+00 0.000E+00
BIGSUB   7        0 2010.51917E+03   545.708    64.845   681.815   308.786   218.825   167.177     3.226    54.498    83.570     2.662     3.354     0.409     0.002     0.001     0.507    22.083     0.240     0.042 .00000E+00 0.000E+00 0.000E+00 0.000E+00 0.000E+00 0.000E+00
BIGSUB   8        0 2010.73656E+03   435.112    30.200   945.660   274.950    43.333    54.504    32.217    23.256   109.708    30.840    13.884     1.700     0.038     0.006     2.286    52.617     0.493     0.002 .00000E+00 0.000E+00 0.000E+00 0.000E+00 0.000E+00 0.000E+00
BIGSUB   9        0 2010.51556E+03   587.977   107.058   527.298   208.370    70.291   223.098    20.693   180.254   345.530    42.223    19.550     2.394     0.007     0.002     2.100   134.137     0.597     0.033 .00000E+00 0.000E+00 0.000E+00 0.000E+00 0.000E+00 0.000E+00
BIGSUB  10        0 2010.53154E+03   548.278    67.185   679.676   228.694    53.709   202.326    17.973   111.393   232.225    33.748    19.631     2.401     0.015     0.003     2.331    95.510     0.465     0.027 .00000E+00 0.000E+00 0.000E+00 0.000E+00 0.000E+00 0.000E+00
BIGSUB  11        0 2010.50741E+03   548.042    67.185   678.041   229.030    65.331   292.098    19.575   186.873   221.198     6.206    12.665     1.534     0.055     0.005     1.706     3.950     0.057     0.105 .00000E+00 0.000E+00 0.000E+00 0.000E+00 0.000E+00 0.000E+00
BIGSUB  12        0 2010.46168E+03   750.683   124.274   529.547   249.982    72.745   248.299    69.934   206.042   467.810   219.535    34.032     4.172     0.016     0.004     3.544   180.141     0.623     0.048 .00000E+00 0.000E+00 0.000E+00 0.000E+00 0.000E+00 0.000E+00
BIGSUB  13        0 2010.35104E+03   736.487    26.560   620.574   258.636    59.032   180.878   130.908   113.025   413.421   529.316    27.766     3.426     0.097     0.006     2.853   162.117     0.824     0.022 .00000E+00 0.000E+00 0.000E+00 0.000E+00 0.000E+00 0.000E+00
BIGSUB   1        0    1.49654E+03    21.099     0.000    28.604    18.018   120.756     4.622     0.000     7.878     8.638     0.000     0.000     0.000     0.000     0.000     0.000     0.760     0.007     0.005 .00000E+00 0.000E+00 0.000E+00 0.000E+00 0.000E+00 0.000E+00
BIGSUB   2        0    1.43327E+03    21.092     0.000    28.732    19.617   129.227     2.776     0.000     6.166     7.679     0.000     0.000     0.000     0.000     0.000     0.000     1.288     0.031     0.003 .00000E+00 0.000E+00 0.000E+00 0.000E+00 0.000E+00 0.000E+00
BIGSUB   3        0    1.32812E+03    21.101     0.600    29.454    19.681    46.851     3.479     0.000    13.107    18.365     0.000     0.000     0.000     0.000     0.000     0.000     4.874     0.128     0.000 .00000E+00 0.000E+00 0.000E+00 0.000E+00 0.000E+00 0.000E+00
BIGSUB   4        0    1.83628E+03    21.102     0.600    28.600    20.673    71.074     1.941     0.003     7.156    12.700     0.000     0.001     0.000     0.000     0.000     0.000     5.341     0.196     0.002 .00000E+00 0.000E+00 0.000E+00 0.000E+00 0.000E+00 0.000E+00
BIGSUB   5        0    1.53492E+03    21.108     0.000    28.462    19.130    75.397     4.542     0.005    14.157    16.529     0.000     0.001     0.000     0.000     0.000     0.000     1.932     0.033     0.004 .00000E+00 0.000E+00 0.000E+00 0.000E+00 0.000E+00 0.000E+00
BIGSUB   6        0    1.28785E+03    39.415     0.000    26.389    20.135   195.830    16.457     0.001    13.385    14.579     0.000     0.001     0.000     0.000     0.000     0.000     0.756     0.012     0.011 .00000E+00 0.000E+00 0.000E+00 0.000E+00 0.000E+00 0.000E+00
BIGSUB   7        0    1.51917E+03    39.397     0.000    20.354    16.994   216.574    22.437     0.000    32.304    36.539     0.000     0.000     0.000     0.000     0.000     0.000     3.387     0.036     0.028 .00000E+00 0.000E+00 0.000E+00 0.000E+00 0.000E+00 0.000E+00
BIGSUB   8        0    1.73656E+03    21.101     0.600    28.579    19.938    38.892     2.798     0.537     6.095    10.176     0.929     0.327     0.040     0.003     0.000     0.050     3.285     0.030     0.001 .00000E+00 0.000E+00 0.000E+00 0.000E+00 0.000E+00 0.000E+00
BIGSUB   9        0    1.51556E+03    39.401     0.000     9.298     6.746    69.493    22.131     0.082    23.965    37.410     0.075     0.050     0.006     0.000     0.000     0.005    12.426     0.056     0.004 .00000E+00 0.000E+00 0.000E+00 0.000E+00 0.000E+00 0.000E+00
BIGSUB  10        0    1.53154E+03    39.414     0.000    19.437    13.134    52.345    19.343     0.054    23.578    33.620     0.052     0.031     0.004     0.000     0.000     0.004     9.065     0.027     0.005 .00000E+00 0.000E+00 0.000E+00 0.000E+00 0.000E+00 0.000E+00
BIGSUB  11        0    1.50741E+03    39.397     0.000    19.392    12.664    64.073    27.563     0.163    34.805    36.907     0.008     0.063     0.008     0.002     0.000     0.008     0.604     0.004     0.007 .00000E+00 0.000E+00 0.000E+00 0.000E+00 0.000E+00 0.000E+00
BIGSUB  12        0    1.46168E+03    39.386     0.000     9.144     7.654    71.560    20.540     0.099    25.617    40.033     0.145     0.039     0.005     0.000     0.000     0.004    13.448     0.046     0.003 .00000E+00 0.000E+00 0.000E+00 0.000E+00 0.000E+00 0.000E+00
BIGSUB  13        0    1.35104E+03    39.378     0.000    13.176    10.280    57.160    17.291     1.683    15.379    30.744     1.543     0.473     0.059     0.002     0.000     0.047    13.024     0.077     0.003 .00000E+00 0.000E+00 0.000E+00 0.000E+00 0.000E+00 0.000E+00
BIGSUB   1        0    2.49654E+03    29.598     0.000    38.483    19.914   123.141     6.762     0.000     7.678     8.214     0.000     0.000     0.000     0.000     0.000     0.000     0.536     0.005     0.003 .00000E+00 0.000E+00 0.000E+00 0.000E+00 0.000E+00 0.000E+00
BIGSUB   2        0    2.43327E+03    29.589     0.000    36.859    21.522   132.464     3.989     0.007     4.404     5.484     0.000     0.001     0.000     0.000     0.000     0.000     0.837     0.009     0.001 .00000E+00 0.000E+00 0.000E+00 0.000E+00 0.000E+00 0.000E+00
BIGSUB   3        0    2.32812E+03    29.601     2.100    36.481    20.612    47.398     5.205     0.000     9.405    13.263     0.000     0.000     0.000     0.000     0.000     0.000     3.478     0.021     0.000 .00000E+00 0.000E+00 0.000E+00 0.000E+00 0.000E+00 0.000E+00
BIGSUB   4        0    2.83628E+03    29.603     2.100    36.957    22.763    71.878     2.742     0.000     5.248     8.997     0.000     0.000     0.000     0.000     0.000     0.000     3.546     0.035     0.001 .00000E+00 0.000E+00 0.000E+00 0.000E+00 0.000E+00 0.000E+00
BIGSUB   5        0    2.53492E+03    29.611     0.000    38.422    21.366    75.834     6.551     0.010    10.154    11.839     0.000     0.001     0.000     0.000     0.000     0.000     1.243     0.008     0.002 .00000E+00 0.000E+00 0.000E+00 0.000E+00 0.000E+00 0.000E+00
BIGSUB   6        0    2.28785E+03    27.110     0.000    40.863    22.940   191.899     7.824     0.000    13.532    14.436     0.000     0.000     0.000     0.000     0.000     0.000     0.359     0.005     0.009 .00000E+00 0.000E+00 0.000E+00 0.000E+00 0.000E+00 0.000E+00
BIGSUB   7        0    2.51917E+03    27.098     0.000    30.757    19.736   212.821     9.888     0.000    27.604    29.945     0.000     0.000     0.000     0.000     0.000     0.000     1.389     0.015     0.016 .00000E+00 0.000E+00 0.000E+00 0.000E+00 0.000E+00 0.000E+00
BIGSUB   8        0    2.73656E+03    29.601     2.100    36.941    20.976    38.454     3.519     2.532     4.741    10.810     1.208     0.955     0.117     0.015     0.001     0.146     3.280     0.023     0.001 .00000E+00 0.000E+00 0.000E+00 0.000E+00 0.000E+00 0.000E+00
BIGSUB   9        0    2.51556E+03    27.101     0.000    19.698    10.749    67.540    11.416     0.272    23.343    31.236     0.379     0.220     0.027     0.000     0.000     0.023     6.651     0.028     0.003 .00000E+00 0.000E+00 0.000E+00 0.000E+00 0.000E+00 0.000E+00
BIGSUB  10        0    2.53154E+03    27.110     0.000    31.450    14.767    49.716     9.935     0.231    22.457    28.459     0.329     0.189     0.023     0.000     0.000     0.023     4.829     0.014     0.003 .00000E+00 0.000E+00 0.000E+00 0.000E+00 0.000E+00 0.000E+00
BIGSUB  11        0    2.50741E+03    27.098     0.000    31.380    14.198    61.671    14.826     0.260    32.408    34.326     0.061     0.129     0.016     0.002     0.000     0.017     0.307     0.003     0.005 .00000E+00 0.000E+00 0.000E+00 0.000E+00 0.000E+00 0.000E+00
BIGSUB  12        0    2.46168E+03    27.091     0.000    19.723    12.716    68.965     9.704     0.276    22.343    30.540     0.522     0.154     0.019     0.000     0.000     0.016     7.030     0.022     0.002 .00000E+00 0.000E+00 0.000E+00 0.000E+00 0.000E+00 0.000E+00
BIGSUB  13        0    2.35104E+03    27.085    10.200    23.514    13.543    54.787     4.715     6.419    16.058    27.992    19.826     4.526     0.563     0.018     0.000     0.461     4.826     0.018     0.002 .00000E+00 0.000E+00 0.000E+00 0.000E+00 0.000E+00 0.000E+00
BIGSUB   1        0    3.49654E+03    46.497     0.000    55.140    37.549   126.274     5.231     0.000     8.156     8.680     0.000     0.000     0.000     0.000     0.000     0.000     0.523     0.003     0.003 .00000E+00 0.000E+00 0.000E+00 0.000E+00 0.000E+00 0.000E+00
BIGSUB   2        0    3.43327E+03    46.482     0.000    53.303    39.158   136.677     2.263     0.000     3.612     4.642     0.000     0.000     0.000     0.000     0.000     0.000     0.770     0.008     0.001 .00000E+00 0.000E+00 0.000E+00 0.000E+00 0.000E+00 0.000E+00
BIGSUB   3        0    3.32812E+03    46.501     8.000    47.869    34.518    49.720     5.199     0.000     7.589    11.859     0.000     0.000     0.000     0.000     0.000     0.000     3.863     0.005     0.000 .00000E+00 0.000E+00 0.000E+00 0.000E+00 0.000E+00 0.000E+00
BIGSUB   4        0    3.83628E+03    46.505     8.000    48.735    36.681    74.834     2.418     0.000     4.124     8.220     0.000     0.000     0.000     0.000     0.000     0.000     3.878     0.009     0.000 .00000E+00 0.000E+00 0.000E+00 0.000E+00 0.000E+00 0.000E+00
BIGSUB   5        0    3.53492E+03    46.517     0.000    55.231    38.844    78.037     4.197     0.000     8.278     9.893     0.000     0.000     0.000     0.000     0.000     0.000     1.150     0.003     0.001 .00000E+00 0.000E+00 0.000E+00 0.000E+00 0.000E+00 0.000E+00
BIGSUB   6        0    3.28785E+03    81.131     0.000    51.820    41.511   202.306    28.295     0.066    13.307    14.701     0.015     0.023     0.003     0.000     0.000     0.004     0.655     0.031     0.007 .00000E+00 0.000E+00 0.000E+00 0.000E+00 0.000E+00 0.000E+00
BIGSUB   7        0    3.51917E+03    81.094     7.400    40.963    34.575   219.319    35.980     0.087    25.018    29.387     0.081     0.096     0.012     0.000     0.000     0.015     3.185     0.032     0.011 .00000E+00 0.000E+00 0.000E+00 0.000E+00 0.000E+00 0.000E+00
BIGSUB   8        0    3.73656E+03    46.501     8.000    48.724    35.946    40.721     2.861     0.585     3.968     9.322     0.529     0.191     0.023     0.004     0.000     0.030     4.496     0.020     0.000 .00000E+00 0.000E+00 0.000E+00 0.000E+00 0.000E+00 0.000E+00
BIGSUB   9        0    3.51556E+03    81.103     7.400    34.571    22.765    69.809    34.678     1.663    24.193    45.434     2.868     1.505     0.185     0.001     0.000     0.160    18.474     0.074     0.003 .00000E+00 0.000E+00 0.000E+00 0.000E+00 0.000E+00 0.000E+00
BIGSUB  10        0    3.53154E+03    81.129     7.400    41.802    28.167    53.697    32.599     1.388    22.711    39.276     1.840     1.019     0.125     0.005     0.000     0.121    14.121     0.052     0.003 .00000E+00 0.000E+00 0.000E+00 0.000E+00 0.000E+00 0.000E+00
BIGSUB  11        0    3.50741E+03    81.094     7.400    41.680    27.216    65.482    47.768     1.610    32.813    36.424     0.303     0.692     0.086     0.021     0.001     0.092     0.484     0.007     0.006 .00000E+00 0.000E+00 0.000E+00 0.000E+00 0.000E+00 0.000E+00
BIGSUB  12        0    3.46168E+03    84.315     7.696    34.850    26.939    72.106    30.649     1.961    21.332    44.693     4.708     1.264     0.157     0.002     0.000     0.131    20.395     0.061     0.002 .00000E+00 0.000E+00 0.000E+00 0.000E+00 0.000E+00 0.000E+00
BIGSUB  13        0    3.35104E+03    84.298     0.000    37.560    28.111    58.532    24.497     7.399    16.067    43.588    13.205     2.074     0.259     0.012     0.000     0.215    19.359     0.093     0.002 .00000E+00 0.000E+00 0.000E+00 0.000E+00 0.000E+00 0.000E+00
BIGSUB   1        0    4.49654E+03     5.330     0.000    81.433    25.171   106.425     0.000     0.000     5.626     5.763     0.000     0.000     0.000     0.000     0.000     0.000     0.137     0.003     0.001 .00000E+00 0.000E+00 0.000E+00 0.000E+00 0.000E+00 0.000E+00
BIGSUB   2        0    4.43327E+03    53.280     0.000    77.715    49.209   135.215     4.327     0.000     2.650     4.030     0.000     0.000     0.000     0.000     0.000     0.000     1.148     0.012     0.000 .00000E+00 0.000E+00 0.000E+00 0.000E+00 0.000E+00 0.000E+00
BIGSUB   3        0    4.32812E+03    53.301     3.800    80.551    43.853    47.379     6.278     0.000     5.885    11.747     0.000     0.000     0.000     0.000     0.000     0.000     5.497     0.011     0.000 .00000E+00 0.000E+00 0.000E+00 0.000E+00 0.000E+00 0.000E+00
BIGSUB   4        0    4.83628E+03    53.305     3.800    82.913    48.373    71.274     2.974     0.000     2.803     8.470     0.000     0.000     0.000     0.000     0.000     0.000     5.473     0.018     0.000 .00000E+00 0.000E+00 0.000E+00 0.000E+00 0.000E+00 0.000E+00
BIGSUB   5        0    4.53492E+03    53.319     0.000    81.692    44.698    76.955     7.877     0.000     6.031     8.162     0.000     0.000     0.000     0.000     0.000     0.000     1.721     0.005     0.001 .00000E+00 0.000E+00 0.000E+00 0.000E+00 0.000E+00 0.000E+00
BIGSUB   6        0    4.28785E+03    45.817     0.000    71.031    50.670   190.767     6.363     0.000    13.220    14.459     0.000     0.000     0.000     0.000     0.000     0.000     0.511     0.052     0.007 .00000E+00 0.000E+00 0.000E+00 0.000E+00 0.000E+00 0.000E+00
BIGSUB   7        0    4.51917E+03    45.797     1.300    56.352    40.835   212.038    10.684     0.000    24.136    27.578     0.000     0.000     0.000     0.000     0.000     0.000     2.326     0.022     0.011 .00000E+00 0.000E+00 0.000E+00 0.000E+00 0.000E+00 0.000E+00
BIGSUB   8        0    4.73656E+03    53.301     3.800    82.905    45.812    35.467     3.984     2.974     2.388    11.258     4.181     1.351     0.166     0.008     0.001     0.216     5.654     0.021     0.000 .00000E+00 0.000E+00 0.000E+00 0.000E+00 0.000E+00 0.000E+00
BIGSUB   9        0    4.51556E+03    45.802     1.300    56.760    30.121    64.191    12.384     0.036    23.629    34.814     0.046     0.027     0.003     0.000     0.000     0.003    10.033     0.029     0.003 .00000E+00 0.000E+00 0.000E+00 0.000E+00 0.000E+00 0.000E+00
BIGSUB  10        0    4.53154E+03    45.816     1.300    57.625    31.048    49.635    12.121     0.024    22.146    30.693     0.030     0.017     0.002     0.000     0.000     0.002     7.462     0.025     0.003 .00000E+00 0.000E+00 0.000E+00 0.000E+00 0.000E+00 0.000E+00
BIGSUB  11        0    4.50741E+03    45.796     1.300    57.423    30.224    61.963    18.754     0.048    32.283    34.352     0.005     0.017     0.002     0.000     0.000     0.002     0.487     0.007     0.010 .00000E+00 0.000E+00 0.000E+00 0.000E+00 0.000E+00 0.000E+00
BIGSUB  12        0    4.46168E+03    86.990     2.470    57.410    37.659    68.118    29.323     2.349    24.322    50.355     5.149     1.325     0.165     0.001     0.000     0.139    22.626     0.059     0.003 .00000E+00 0.000E+00 0.000E+00 0.000E+00 0.000E+00 0.000E+00
BIGSUB  13        0    4.35104E+03    86.972     0.000    61.676    36.870    54.722    23.979     9.289    17.598    49.242    35.635     3.615     0.451     0.009     0.000     0.384    21.547     0.095     0.003 .00000E+00 0.000E+00 0.000E+00 0.000E+00 0.000E+00 0.000E+00
BIGSUB   1        0    5.49654E+03    85.495     0.000   116.561    45.371   124.758    20.093     0.000     3.327     4.752     0.000     0.000     0.000     0.000     0.000     0.000     1.425     0.010     0.001 .00000E+00 0.000E+00 0.000E+00 0.000E+00 0.000E+00 0.000E+00
BIGSUB   2        0    5.43327E+03    85.468     0.000   112.155    57.942   144.240    11.909     3.851     3.130     9.820     0.999     1.517     0.186     0.001     0.001     0.285     2.593     0.031     0.001 .00000E+00 0.000E+00 0.000E+00 0.000E+00 0.000E+00 0.000E+00
BIGSUB   3        0    5.32812E+03    85.502     2.300   107.891    44.543    54.716    17.546     3.994     6.936    22.954     0.781     1.972     0.241     0.000     0.001     0.310    11.641     0.118     0.000 .00000E+00 0.000E+00 0.000E+00 0.000E+00 0.000E+00 0.000E+00
BIGSUB   4        0    5.83628E+03    85.509     2.300   112.050    50.235    82.356     8.942     2.734     3.311    18.365     0.409     1.213     0.148     0.000     0.001     0.184    12.118     0.157     0.000 .00000E+00 0.000E+00 0.000E+00 0.000E+00 0.000E+00 0.000E+00
BIGSUB   5        0    5.53492E+03    85.531     0.000   116.786    46.978    85.147    21.624     4.591     7.676    16.599     1.202     1.890     0.231     0.000     0.001     0.372     3.898     0.029     0.001 .00000E+00 0.000E+00 0.000E+00 0.000E+00 0.000E+00 0.000E+00
BIGSUB   6        0    5.28785E+03   104.178     0.000   110.861    74.552   191.190    26.701     1.456    11.598    14.645     0.395     0.570     0.070     0.000     0.000     0.094     0.843     0.009     0.005 .00000E+00 0.000E+00 0.000E+00 0.000E+00 0.000E+00 0.000E+00
BIGSUB   7        0    5.51917E+03   100.995     0.000    91.256    57.481   207.974    40.469     2.188    21.450    29.118     2.779     3.131     0.382     0.002     0.001     0.480     4.348     0.037     0.009 .00000E+00 0.000E+00 0.000E+00 0.000E+00 0.000E+00 0.000E+00
BIGSUB   8        0    5.73656E+03    85.502     2.300   112.042    42.649    36.487    11.098    22.498     2.907    33.654    39.170     8.415     1.032     0.024     0.005     1.532     8.001     0.015     0.000 .00000E+00 0.000E+00 0.000E+00 0.000E+00 0.000E+00 0.000E+00
BIGSUB   9        0    5.51556E+03   106.072     0.000    76.989    37.998    63.086    36.422     9.868    22.167    55.787    20.129     8.423     1.033     0.002     0.001     0.906    22.621     0.064     0.002 .00000E+00 0.000E+00 0.000E+00 0.000E+00 0.000E+00 0.000E+00
BIGSUB  10        0    5.53154E+03   103.803     0.000    90.381    41.693    45.942    38.500     9.245    21.438    49.600    15.287     7.393     0.906     0.006     0.002     0.908    17.831     0.083     0.003 .00000E+00 0.000E+00 0.000E+00 0.000E+00 0.000E+00 0.000E+00
BIGSUB  11        0    5.50741E+03   103.759     0.000    90.183    40.466    57.848    56.340    10.257    31.612    44.058     3.011     6.434     0.795     0.020     0.004     0.917     0.605     0.008     0.011 .00000E+00 0.000E+00 0.000E+00 0.000E+00 0.000E+00 0.000E+00
BIGSUB  12        0    5.46168E+03   265.081     0.000    77.759    49.636    63.603    83.709    81.252    32.170   169.424   173.454    14.932     1.859     0.004     0.004     1.591    54.735     0.119     0.005 .00000E+00 0.000E+00 0.000E+00 0.000E+00 0.000E+00 0.000E+00
BIGSUB  13        0    5.35104E+03   249.353     0.000    82.419    48.228    51.946    47.787   117.586    22.084   179.262   398.208     9.932     1.230     0.026     0.003     1.042    38.628     0.149     0.004 .00000E+00 0.000E+00 0.000E+00 0.000E+00 0.000E+00 0.000E+00
BIGSUB   1        0    6.49654E+03    54.219     0.800   130.278    54.800   105.486    17.516     0.000    13.307    14.692     0.000     0.000     0.000     0.000     0.000     0.000     1.385     0.009     0.007 .00000E+00 0.000E+00 0.000E+00 0.000E+00 0.000E+00 0.000E+00
BIGSUB   2        0    6.43327E+03    55.535     0.800   123.032    59.975   124.934    11.342     1.581     5.925    10.076     0.522     0.779     0.095     0.000     0.000     0.144     2.246     0.018     0.002 .00000E+00 0.000E+00 0.000E+00 0.000E+00 0.000E+00 0.000E+00
BIGSUB   3        0    6.32812E+03    55.558     0.000   124.784    49.309    37.781    12.453     2.134    12.867    25.205     0.270     0.758     0.093     0.000     0.001     0.119     9.731     0.086     0.001 .00000E+00 0.000E+00 0.000E+00 0.000E+00 0.000E+00 0.000E+00
BIGSUB   4        0    6.83628E+03    53.370     0.000   130.300    55.891    62.692     6.816     1.412     6.583    18.278     0.137     0.485     0.059     0.000     0.000     0.071    10.035     0.118     0.001 .00000E+00 0.000E+00 0.000E+00 0.000E+00 0.000E+00 0.000E+00
BIGSUB   5        0    6.53492E+03    54.242     0.800   130.534    49.099    69.209    15.991     2.229    13.773    19.900     0.673     1.088     0.133     0.001     0.001     0.207     3.341     0.022     0.002 .00000E+00 0.000E+00 0.000E+00 0.000E+00 0.000E+00 0.000E+00
BIGSUB   6        0    6.28785E+03     4.831     0.000   162.412    66.893   129.139     0.000     0.000    13.945    14.962     0.000     0.000     0.000     0.000     0.000     0.000     0.254     0.004     0.007 .00000E+00 0.000E+00 0.000E+00 0.000E+00 0.000E+00 0.000E+00
BIGSUB   7        0    6.51917E+03     3.327     0.000   222.093    70.611   140.680     0.000     0.000    23.148    25.026     0.000     0.000     0.000     0.000     0.000     0.000     0.730     0.008     0.010 .00000E+00 0.000E+00 0.000E+00 0.000E+00 0.000E+00 0.000E+00
BIGSUB   8        0    6.73656E+03    53.366     0.000   130.291    49.425    16.148     5.742    13.484     6.520    26.106    17.501     2.898     0.355     0.008     0.003     0.519     5.807     0.025     0.000 .00000E+00 0.000E+00 0.000E+00 0.000E+00 0.000E+00 0.000E+00
BIGSUB   9        0    6.51556E+03    35.461     0.000   117.385    43.989    47.345     1.728     0.000    22.134    29.052     0.000     0.000     0.000     0.000     0.000     0.000     5.795     0.004     0.002 .00000E+00 0.000E+00 0.000E+00 0.000E+00 0.000E+00 0.000E+00
BIGSUB  10        0    6.53154E+03    15.859     0.000   211.668    35.457    24.611     0.200     0.000    19.885    22.732     0.000     0.000     0.000     0.000     0.000     0.000     1.748     0.001     0.004 .00000E+00 0.000E+00 0.000E+00 0.000E+00 0.000E+00 0.000E+00
BIGSUB  11        0    6.50741E+03    15.852     0.000   211.693    36.721    36.925     0.000     0.002    32.442    34.356     0.000     0.001     0.000     0.000     0.000     0.000     0.307     0.004     0.014 .00000E+00 0.000E+00 0.000E+00 0.000E+00 0.000E+00 0.000E+00
BIGSUB  12        0    6.46168E+03    38.283     0.000   118.197    54.053    41.326     0.235     0.004    41.871    50.254     0.000     0.000     0.000     0.000     0.000     0.000     6.836     0.002     0.006 .00000E+00 0.000E+00 0.000E+00 0.000E+00 0.000E+00 0.000E+00
BIGSUB  13        0    6.35104E+03    39.240     0.000    97.802    39.251    43.330     1.413     0.141    25.165    33.752     0.384     0.001     0.000     0.000     0.000     0.000     7.359     0.006     0.004 .00000E+00 0.000E+00 0.000E+00 0.000E+00 0.000E+00 0.000E+00
BIGSUB   1        0    7.49654E+03     6.100     0.000   162.702    25.566    85.972     0.000     0.000    11.474    11.580     0.000     0.000     0.000     0.000     0.000     0.000     0.106     0.001     0.003 .00000E+00 0.000E+00 0.000E+00 0.000E+00 0.000E+00 0.000E+00
BIGSUB   2        0    7.43327E+03     6.098     0.000   155.931    31.162    99.787     0.000     0.000     4.980     5.493     0.000     0.000     0.000     0.000     0.000     0.000     0.160     0.001     0.001 .00000E+00 0.000E+00 0.000E+00 0.000E+00 0.000E+00 0.000E+00
BIGSUB   3        0    7.32812E+03     6.100     0.000   159.531    20.440    23.043     0.000     0.000     7.735     8.728     0.000     0.000     0.000     0.000     0.000     0.000     0.495     0.001     0.000 .00000E+00 0.000E+00 0.000E+00 0.000E+00 0.000E+00 0.000E+00
BIGSUB   4        0    7.83628E+03     6.101     0.000   163.984    24.253    44.104     0.000     0.000     3.704     4.495     0.000     0.000     0.000     0.000     0.000     0.000     0.531     0.002     0.000 .00000E+00 0.000E+00 0.000E+00 0.000E+00 0.000E+00 0.000E+00
BIGSUB   5        0    7.53492E+03     6.102     0.000   162.990    19.546    55.655     0.000     0.000     8.850     9.671     0.000     0.000     0.000     0.000     0.000     0.000     0.226     0.001     0.001 .00000E+00 0.000E+00 0.000E+00 0.000E+00 0.000E+00 0.000E+00
BIGSUB   6        0    7.28785E+03     0.000     0.000   171.226    32.454    96.698     0.000     0.000     3.834     4.595     0.000     0.000     0.000     0.000     0.000     0.000     0.059     0.001     0.001 .00000E+00 0.000E+00 0.000E+00 0.000E+00 0.000E+00 0.000E+00
BIGSUB   7        0    7.51917E+03     0.000     0.000   287.706    82.570    58.104     0.000     0.000     5.977     7.086     0.000     0.000     0.000     0.000     0.000     0.000     0.061     0.001     0.001 .00000E+00 0.000E+00 0.000E+00 0.000E+00 0.000E+00 0.000E+00
BIGSUB   8        0    7.73656E+03     6.100     0.000   163.972    15.310     6.421     0.000     0.000     4.588     5.466     0.000     0.000     0.000     0.000     0.000     0.000     0.577     0.004     0.000 .00000E+00 0.000E+00 0.000E+00 0.000E+00 0.000E+00 0.000E+00
BIGSUB   9        0    7.51556E+03     0.000     0.000   162.297    31.698    15.648     0.000     0.000    12.021    13.145     0.000     0.000     0.000     0.000     0.000     0.000     0.097     0.000     0.000 .00000E+00 0.000E+00 0.000E+00 0.000E+00 0.000E+00 0.000E+00
BIGSUB  10        0    7.53154E+03     0.000     0.000   271.250    18.138     6.480     0.000     0.000     6.522     7.641     0.000     0.000     0.000     0.000     0.000     0.000     0.118     0.000     0.001 .00000E+00 0.000E+00 0.000E+00 0.000E+00 0.000E+00 0.000E+00
BIGSUB  11        0    7.50741E+03     0.000     0.000   271.570    22.561    14.362     0.000     0.000    16.520    18.080     0.000     0.000     0.000     0.000     0.000     0.000     0.100     0.002     0.004 .00000E+00 0.000E+00 0.000E+00 0.000E+00 0.000E+00 0.000E+00
BIGSUB  12        0    7.46168E+03     0.000     0.000   162.892    28.613    12.703     0.000     0.000    18.511    20.100     0.000     0.000     0.000     0.000     0.000     0.000     0.086     0.000     0.001 .00000E+00 0.000E+00 0.000E+00 0.000E+00 0.000E+00 0.000E+00
BIGSUB  13        0    7.35104E+03     0.000     0.000   114.168    23.742    19.575     0.000     0.000    15.608    16.717     0.000     0.000     0.000     0.000     0.000     0.000     0.081     0.000     0.001 .00000E+00 0.000E+00 0.000E+00 0.000E+00 0.000E+00 0.000E+00
BIGSUB   1        0    8.49654E+03     0.000     0.000   150.810     8.289    77.683     0.000     0.000     2.093     2.108     0.000     0.000     0.000     0.000     0.000     0.000     0.015     0.000     0.000 .00000E+00 0.000E+00 0.000E+00 0.000E+00 0.000E+00 0.000E+00
BIGSUB   2        0    8.43327E+03     0.000     0.000   144.346     9.596    90.187     0.000     0.000     0.351     0.675     0.000     0.000     0.000     0.000     0.000     0.000     0.024     0.000     0.000 .00000E+00 0.000E+00 0.000E+00 0.000E+00 0.000E+00 0.000E+00
BIGSUB   3        0    8.32812E+03     0.000     0.000   149.223     6.792    16.252     0.000     0.000     0.537     0.968     0.000     0.000     0.000     0.000     0.000     0.000     0.015     0.000     0.000 .00000E+00 0.000E+00 0.000E+00 0.000E+00 0.000E+00 0.000E+00
BIGSUB   4        0    8.83628E+03     0.000     0.000   154.877    10.398    33.707     0.000     0.000     0.188     0.425     0.000     0.000     0.000     0.000     0.000     0.000     0.020     0.000     0.000 .00000E+00 0.000E+00 0.000E+00 0.000E+00 0.000E+00 0.000E+00
BIGSUB   5        0    8.53492E+03     0.000     0.000   150.933     7.473    48.185     0.000     0.000     0.755     1.281     0.000     0.000     0.000     0.000     0.000     0.000     0.025     0.000     0.000 .00000E+00 0.000E+00 0.000E+00 0.000E+00 0.000E+00 0.000E+00
BIGSUB   6        0    8.28785E+03     2.863     0.000   147.151    11.057    88.499     0.000     0.000     0.151     0.736     0.000     0.000     0.000     0.000     0.000     0.000     0.025     0.000     0.000 .00000E+00 0.000E+00 0.000E+00 0.000E+00 0.000E+00 0.000E+00
BIGSUB   7        0    8.51917E+03     2.312     0.000   251.109    24.969    35.432     0.000     0.000     0.001     0.857     0.000     0.000     0.000     0.000     0.000     0.000     0.022     0.000     0.000 .00000E+00 0.000E+00 0.000E+00 0.000E+00 0.000E+00 0.000E+00
BIGSUB   8        0    8.73656E+03     0.000     0.000   154.862     4.143     2.278     0.000     0.000     0.221     0.479     0.000     0.000     0.000     0.000     0.000     0.000     0.009     0.000     0.000 .00000E+00 0.000E+00 0.000E+00 0.000E+00 0.000E+00 0.000E+00
BIGSUB   9        0    8.51556E+03    11.510     0.000   133.573    10.307    14.931     0.051     0.000     0.749     3.371     0.000     0.000     0.000     0.000     0.000     0.000     1.803     0.000     0.000 .00000E+00 0.000E+00 0.000E+00 0.000E+00 0.000E+00 0.000E+00
BIGSUB  10        0    8.53154E+03     2.702     0.000   239.575     5.906     3.085     0.000     0.000     0.000     0.983     0.000     0.000     0.000     0.000     0.000     0.000     0.186     0.001     0.000 .00000E+00 0.000E+00 0.000E+00 0.000E+00 0.000E+00 0.000E+00
BIGSUB  11        0    8.50741E+03     2.701     0.000   239.960     6.477    10.577     0.000     0.000     0.000     1.193     0.000     0.000     0.000     0.000     0.000     0.000     0.032     0.001     0.000 .00000E+00 0.000E+00 0.000E+00 0.000E+00 0.000E+00 0.000E+00
BIGSUB  12        0    8.46168E+03    11.506     0.000   133.889     9.322    12.870     0.000     0.000     0.733     3.937     0.000     0.000     0.000     0.000     0.000     0.000     1.977     0.000     0.000 .00000E+00 0.000E+00 0.000E+00 0.000E+00 0.000E+00 0.000E+00
BIGSUB  13        0    8.35104E+03     5.246     0.000    92.234    12.615    11.460     0.000     0.000     4.565     6.137     0.000     0.000     0.000     0.000     0.000     0.000     0.742     0.006     0.000 .00000E+00 0.000E+00 0.000E+00 0.000E+00 0.000E+00 0.000E+00
BIGSUB   1        0    9.49654E+03     1.300     0.000   109.695     5.853    73.129     0.000     0.000     0.003     0.007     0.000     0.000     0.000     0.000     0.000     0.000     0.004     0.000     0.000 .00000E+00 0.000E+00 0.000E+00 0.000E+00 0.000E+00 0.000E+00
BIGSUB   2        0    9.43327E+03     1.300     0.000   104.999     5.279    86.206     0.000     0.000     0.000     0.235     0.000     0.000     0.000     0.000     0.000     0.000     0.007     0.000     0.000 .00000E+00 0.000E+00 0.000E+00 0.000E+00 0.000E+00 0.000E+00
BIGSUB   3        0    9.32812E+03     1.300     0.300   107.937     3.668    13.884     0.000     0.000     0.000     0.318     0.000     0.000     0.000     0.000     0.000     0.000     0.002     0.000     0.000 .00000E+00 0.000E+00 0.000E+00 0.000E+00 0.000E+00 0.000E+00
BIGSUB   4        0    9.83628E+03     1.300     0.300   109.537     5.175    29.833     0.000     0.000     0.000     0.167     0.000     0.000     0.000     0.000     0.000     0.000     0.003     0.000     0.000 .00000E+00 0.000E+00 0.000E+00 0.000E+00 0.000E+00 0.000E+00
BIGSUB   5        0    9.53492E+03     1.300     0.000   109.692     3.980    45.506     0.000     0.000     0.000     0.385     0.000     0.000     0.000     0.000     0.000     0.000     0.005     0.000     0.000 .00000E+00 0.000E+00 0.000E+00 0.000E+00 0.000E+00 0.000E+00
BIGSUB   6        0    9.28785E+03    31.510     0.000    79.275    17.563   102.287     0.000     0.000     0.000     0.541     0.000     0.000     0.000     0.000     0.000     0.000     0.125     0.000     0.000 .00000E+00 0.000E+00 0.000E+00 0.000E+00 0.000E+00 0.000E+00
BIGSUB   7        0    9.51917E+03    12.748     0.000   150.767    12.696    35.320     0.000     0.000     0.000     0.735     0.000     0.000     0.000     0.000     0.000     0.000     0.118     0.001     0.000 .00000E+00 0.000E+00 0.000E+00 0.000E+00 0.000E+00 0.000E+00
BIGSUB   8        0    9.73656E+03     1.300     0.300   109.519     2.589     0.978     0.000     0.000     0.000     0.199     0.000     0.000     0.000     0.000     0.000     0.000     0.011     0.000     0.000 .00000E+00 0.000E+00 0.000E+00 0.000E+00 0.000E+00 0.000E+00
BIGSUB   9        0    9.51556E+03    63.062     0.000    64.074    29.390    33.344     4.296     0.038     0.273    11.613     0.007     0.015     0.002     0.000     0.000     0.002    10.687     0.001     0.000 .00000E+00 0.000E+00 0.000E+00 0.000E+00 0.000E+00 0.000E+00
BIGSUB  10        0    9.53154E+03    47.957     0.000   107.029    24.560    19.225     2.467     0.000     0.000     5.178     0.000     0.000     0.000     0.000     0.000     0.000     4.583     0.004     0.000 .00000E+00 0.000E+00 0.000E+00 0.000E+00 0.000E+00 0.000E+00
BIGSUB  11        0    9.50741E+03    47.937     0.000   107.054    27.503    30.838     0.000     0.000     0.000     0.976     0.000     0.000     0.000     0.000     0.000     0.000     0.116     0.001     0.000 .00000E+00 0.000E+00 0.000E+00 0.000E+00 0.000E+00 0.000E+00
BIGSUB  12        0    9.46168E+03    63.038     0.000    64.345    31.466    33.185     0.133     0.003     0.088    11.994     0.003     0.000     0.000     0.000     0.000     0.000    10.984     0.000     0.000 .00000E+00 0.000E+00 0.000E+00 0.000E+00 0.000E+00 0.000E+00
BIGSUB  13        0    9.35104E+03    51.137     0.000    50.398    19.858    31.854     1.002     0.071     0.179    10.450     0.033     0.002     0.000     0.000     0.000     0.000     9.580     0.012     0.000 .00000E+00 0.000E+00 0.000E+00 0.000E+00 0.000E+00 0.000E+00
BIGSUB   1        0   10.49654E+03    25.998     1.300    62.591    19.724    79.167     0.000     0.000     0.000     0.223     0.000     0.000     0.000     0.000     0.000     0.000     0.223     0.001     0.000 .00000E+00 0.000E+00 0.000E+00 0.000E+00 0.000E+00 0.000E+00
[...]
BIGSUB   7        0    9.51917E+03    16.299     1.300    78.269    19.470    92.195     0.000     0.000     0.000     0.497     0.000     0.000     0.000     0.000     0.000     0.000     0.381     0.003     0.000 .00000E+00 0.000E+00 0.000E+00 0.000E+00 0.000E+00 0.000E+00
BIGSUB   8        0    9.73656E+03     4.100     4.100   110.634     4.191     3.211     0.000     0.000     0.000     0.353     0.000     0.000     0.000     0.000     0.000     0.000     0.323     0.045     0.000 .00000E+00 0.000E+00 0.000E+00 0.000E+00 0.000E+00 0.000E+00
BIGSUB   9        0    9.51556E+03    16.301     1.300    54.456    11.944    21.100     0.384     0.000     0.012     3.092     0.000     0.000     0.000     0.000     0.000     0.000     2.735     0.002     0.000 .00000E+00 0.000E+00 0.000E+00 0.000E+00 0.000E+00 0.000E+00
BIGSUB  10        0    9.53154E+03    16.306     1.300    76.264    13.678    14.561     0.557     0.000     0.000     1.972     0.000     0.000     0.000     0.000     0.000     0.000     1.697     0.003     0.000 .00000E+00 0.000E+00 0.000E+00 0.000E+00 0.000E+00 0.000E+00
BIGSUB  11        0    9.50741E+03    16.299     1.300    76.113    17.002    22.103     0.000     0.000     0.000     0.456     0.000     0.000     0.000     0.000     0.000     0.000     0.052     0.000     0.000 .00000E+00 0.000E+00 0.000E+00 0.000E+00 0.000E+00 0.000E+00
BIGSUB  12        0    9.46168E+03    16.294     1.300    54.903    12.191    17.220     0.000     0.000     0.000     3.258     0.000     0.000     0.000     0.000     0.000     0.000     2.870     0.001     0.000 .00000E+00 0.000E+00 0.000E+00 0.000E+00 0.000E+00 0.000E+00
BIGSUB  13        0    9.35104E+03    16.291     0.000    61.027    13.156    10.985     0.000     0.000     0.000     3.364     0.000     0.000     0.000     0.000     0.000     0.000     3.124     0.011     0.000 .00000E+00 0.000E+00 0.000E+00 0.000E+00 0.000E+00 0.000E+00
BIGSUB   1        0   10.49654E+03    13.599     0.000    65.136     9.880    61.665     0.000     0.000     0.000     0.050     0.000     0.000     0.000     0.000     0.000     0.000     0.050     0.001     0.000 .00000E+00 0.000E+00 0.000E+00 0.000E+00 0.000E+00 0.000E+00
BIGSUB   2        0   10.43327E+03    13.595     0.000    63.800     9.384    65.362     0.000     0.000     0.000     0.084     0.000     0.000     0.000     0.000     0.000     0.000     0.071     0.002     0.000 .00000E+00 0.000E+00 0.000E+00 0.000E+00 0.000E+00 0.000E+00
BIGSUB   3        0   10.32812E+03    13.600     4.587    60.278     6.918     7.936     0.000     0.000     0.000     0.263     0.000     0.000     0.000     0.000     0.000     0.000     0.240     0.006     0.000 .00000E+00 0.000E+00 0.000E+00 0.000E+00 0.000E+00 0.000E+00
BIGSUB   4        0   10.83628E+03    13.601     4.587    60.195     7.077    15.470     0.000     0.000     0.000     0.250     0.000     0.000     0.000     0.000     0.000     0.000     0.239     0.011     0.000 .00000E+00 0.000E+00 0.000E+00 0.000E+00 0.000E+00 0.000E+00
BIGSUB   5        0   10.53492E+03    13.605     0.000    64.975     8.960    37.341     0.000     0.000     0.000     0.140     0.000     0.000     0.000     0.000     0.000     0.000     0.110     0.003     0.000 .00000E+00 0.000E+00 0.000E+00 0.000E+00 0.000E+00 0.000E+00
BIGSUB   6        0   10.28785E+03    15.006     0.000    69.632    10.786    89.780     0.000     0.000     0.000     0.099     0.000     0.000     0.000     0.000     0.000     0.000     0.031     0.001     0.000 .00000E+00 0.000E+00 0.000E+00 0.000E+00 0.000E+00 0.000E+00
BIGSUB   7        0   10.51917E+03    14.999     0.000    51.435    12.579    94.388     0.000     0.000     0.000     0.197     0.000     0.000     0.000     0.000     0.000     0.000     0.108     0.000     0.000 .00000E+00 0.000E+00 0.000E+00 0.000E+00 0.000E+00 0.000E+00
BIGSUB   8        0   10.73656E+03    13.600     4.587    60.178     6.600     4.962     0.000     0.000     0.000     0.530     0.000     0.000     0.000     0.000     0.000     0.000     0.507     0.068     0.000 .00000E+00 0.000E+00 0.000E+00 0.000E+00 0.000E+00 0.000E+00
BIGSUB   9        0   10.51556E+03    15.001     0.000    28.081     6.683    27.230     0.191     0.000     0.013     1.740     0.000     0.000     0.000     0.000     0.000     0.000     1.460     0.001     0.000 .00000E+00 0.000E+00 0.000E+00 0.000E+00 0.000E+00 0.000E+00
BIGSUB  10        0   10.53154E+03    15.005     0.000    49.935     7.538    20.838     0.046     0.000     0.000     1.044     0.000     0.000     0.000     0.000     0.000     0.000     0.829     0.001     0.000 .00000E+00 0.000E+00 0.000E+00 0.000E+00 0.000E+00 0.000E+00
BIGSUB  11        0   10.50741E+03    14.999     0.000    49.876     7.265    29.795     0.000     0.000     0.000     0.332     0.000     0.000     0.000     0.000     0.000     0.000     0.022     0.000     0.000 .00000E+00 0.000E+00 0.000E+00 0.000E+00 0.000E+00 0.000E+00
BIGSUB  12        0   10.46168E+03    14.995     0.000    28.186     6.200    23.884     0.000     0.000     0.000     1.939     0.000     0.000     0.000     0.000     0.000     0.000     1.639     0.001     0.000 .00000E+00 0.000E+00 0.000E+00 0.000E+00 0.000E+00 0.000E+00
BIGSUB  13        0   10.35104E+03    14.992     0.000    31.777     6.351    17.317     0.000     0.000     0.000     1.956     0.000     0.000     0.000     0.000     0.000     0.000     1.772     0.005     0.000 .00000E+00 0.000E+00 0.000E+00 0.000E+00 0.000E+00 0.000E+00
BIGSUB   1        0   11.49654E+03    52.457     0.000    34.726    20.524    88.798     3.928     0.000     0.000     0.783     0.000     0.000     0.000     0.000     0.000     0.000     0.783     0.018     0.000 .00000E+00 0.000E+00 0.000E+00 0.000E+00 0.000E+00 0.000E+00
BIGSUB   2        0   11.43327E+03    53.848     0.000    33.703    18.845    94.942     4.067     0.002     0.000     1.267     0.000     0.000     0.000     0.000     0.000     0.000     1.253     0.013     0.000 .00000E+00 0.000E+00 0.000E+00 0.000E+00 0.000E+00 0.000E+00
BIGSUB   3        0   11.32812E+03    53.869     5.013    33.902    19.033    34.794     6.103     0.000     0.000     6.276     0.000     0.000     0.000     0.000     0.000     0.000     6.255     0.017     0.000 .00000E+00 0.000E+00 0.000E+00 0.000E+00 0.000E+00 0.000E+00
BIGSUB   4        0   11.83628E+03    50.398     5.013    32.664    16.934    46.488     1.128     0.000     0.000     5.745     0.000     0.000     0.000     0.000     0.000     0.000     5.737     0.024     0.000 .00000E+00 0.000E+00 0.000E+00 0.000E+00 0.000E+00 0.000E+00
BIGSUB   5        0   11.53492E+03    52.479     0.000    34.573    19.166    59.950     8.690     0.004     0.000     1.868     0.000     0.000     0.000     0.000     0.000     0.000     1.837     0.007     0.000 .00000E+00 0.000E+00 0.000E+00 0.000E+00 0.000E+00 0.000E+00
BIGSUB   6        0   11.28785E+03    44.017     0.000    27.862    14.380   119.084     0.000     0.000     0.000     0.344     0.000     0.000     0.000     0.000     0.000     0.000     0.295     0.011     0.000 .00000E+00 0.000E+00 0.000E+00 0.000E+00 0.000E+00 0.000E+00
BIGSUB   7        0   11.51917E+03    43.997     0.000    20.286    14.162   122.969     0.000     0.000     0.000     1.329     0.000     0.000     0.000     0.000     0.000     0.000     1.265     0.000     0.000 .00000E+00 0.000E+00 0.000E+00 0.000E+00 0.000E+00 0.000E+00
BIGSUB   8        0   11.73656E+03    50.394     5.013    32.644    21.361    23.422     6.068     2.219     0.000     9.070     1.307     1.147     0.140     0.005     0.001     0.195     6.821     0.087     0.000 .00000E+00 0.000E+00 0.000E+00 0.000E+00 0.000E+00 0.000E+00
BIGSUB   9        0   11.51556E+03    44.001     0.000     9.872     6.721    50.896     5.308     0.038     0.341     9.305     0.007     0.010     0.001     0.000     0.000     0.001     8.722     0.001     0.000 .00000E+00 0.000E+00 0.000E+00 0.000E+00 0.000E+00 0.000E+00
BIGSUB  10        0   11.53154E+03    44.016     0.000    20.990    13.034    37.491     8.448     0.036     0.087     6.367     0.013     0.018     0.002     0.000     0.000     0.003     6.070     0.006     0.000 .00000E+00 0.000E+00 0.000E+00 0.000E+00 0.000E+00 0.000E+00
BIGSUB  11        0   11.50741E+03    43.997     0.000    20.931    15.919    49.968     7.595     0.045     0.000     0.482     0.023     0.034     0.004     0.000     0.000     0.005     0.204     0.001     0.000 .00000E+00 0.000E+00 0.000E+00 0.000E+00 0.000E+00 0.000E+00
BIGSUB  12        0   11.46168E+03    43.985     0.000     9.787     7.612    49.461     2.205     0.003     0.032     9.285     0.000     0.000     0.000     0.000     0.000     0.000     9.032     0.000     0.000 .00000E+00 0.000E+00 0.000E+00 0.000E+00 0.000E+00 0.000E+00
BIGSUB  13        0   11.35104E+03    43.976     0.000    13.871     9.891    37.065     4.555     0.397     0.000    10.393     0.199     0.008     0.001     0.000     0.000     0.001     9.858     0.003     0.000 .00000E+00 0.000E+00 0.000E+00 0.000E+00 0.000E+00 0.000E+00
BIGSUB   1        0   12.49654E+03    36.998     2.000    24.078    17.161   103.425     4.549     0.000     0.375     1.100     0.000     0.000     0.000     0.000     0.000     0.000     0.725     0.013     0.000 .00000E+00 0.000E+00 0.000E+00 0.000E+00 0.000E+00 0.000E+00
BIGSUB   2        0   12.43327E+03    36.986     2.000    23.019    17.608   108.738     4.443     0.000     0.351     1.629     0.000     0.000     0.000     0.000     0.000     0.000     1.230     0.015     0.000 .00000E+00 0.000E+00 0.000E+00 0.000E+00 0.000E+00 0.000E+00
BIGSUB   3        0   12.32812E+03    37.001     9.700    22.256    17.488    39.386    10.133     0.000     0.305     5.435     0.000     0.000     0.000     0.000     0.000     0.000     5.049     0.014     0.000 .00000E+00 0.000E+00 0.000E+00 0.000E+00 0.000E+00 0.000E+00
BIGSUB   4        0   12.83628E+03    37.004     9.700    21.511    17.236    55.748     5.899     0.000     0.000     4.843     0.000     0.000     0.000     0.000     0.000     0.000     4.815     0.024     0.000 .00000E+00 0.000E+00 0.000E+00 0.000E+00 0.000E+00 0.000E+00
BIGSUB   5        0   12.53492E+03    37.013     2.000    23.914    18.053    67.067    10.103     0.000     0.659     2.632     0.000     0.000     0.000     0.000     0.000     0.000     1.867     0.007     0.000 .00000E+00 0.000E+00 0.000E+00 0.000E+00 0.000E+00 0.000E+00
BIGSUB   6        0   12.28785E+03    80.931     6.113    22.529    17.578   169.885    11.605     0.000     0.133     0.972     0.000     0.000     0.000     0.000     0.000     0.000     0.786     0.020     0.000 .00000E+00 0.000E+00 0.000E+00 0.000E+00 0.000E+00 0.000E+00
BIGSUB   7        0   12.51917E+03    80.894    10.700    14.637    13.213   176.529    10.304     0.001     0.021     3.655     0.001     0.000     0.000     0.000     0.000     0.000     3.572     0.011     0.000 .00000E+00 0.000E+00 0.000E+00 0.000E+00 0.000E+00 0.000E+00
BIGSUB   8        0   12.73656E+03    37.001     9.700    21.493    17.193    30.797     7.109     0.128     1.033     6.548     0.049     0.059     0.007     0.000     0.000     0.010     5.311     0.049     0.000 .00000E+00 0.000E+00 0.000E+00 0.000E+00 0.000E+00 0.000E+00
BIGSUB   9        0   12.51556E+03    80.903    10.700     4.131     3.487    69.978    36.139     1.270     3.093    25.513     0.835     0.468     0.057     0.000     0.000     0.055    20.883     0.035     0.000 .00000E+00 0.000E+00 0.000E+00 0.000E+00 0.000E+00 0.000E+00
BIGSUB  10        0   12.53154E+03    80.929    10.700    14.877    11.769    52.240    36.128     1.367     2.592    21.087     1.169     0.754     0.093     0.000     0.000     0.107    16.860     0.040     0.000 .00000E+00 0.000E+00 0.000E+00 0.000E+00 0.000E+00 0.000E+00
BIGSUB  11        0   12.50741E+03    80.894    10.700    14.859    12.131    64.054    52.498     1.392     2.438     4.791     0.506     0.829     0.104     0.000     0.000     0.121     0.617     0.002     0.001 .00000E+00 0.000E+00 0.000E+00 0.000E+00 0.000E+00 0.000E+00
BIGSUB  12        0   12.46168E+03    80.872    10.700     3.999     3.756    72.344    30.698     1.076     2.808    26.572     0.766     0.006     0.001     0.000     0.000     0.001    22.448     0.014     0.000 .00000E+00 0.000E+00 0.000E+00 0.000E+00 0.000E+00 0.000E+00
BIGSUB  13        0   12.35104E+03    80.856    17.200     7.111     6.636    58.698    26.010     5.261     1.840    28.640    15.927     0.059     0.007     0.000     0.000     0.011    21.355     0.048     0.000 .00000E+00 0.000E+00 0.000E+00 0.000E+00 0.000E+00 0.000E+00
BIGSUB   1        0 2015.49654E+03   211.577     6.100  1076.929   209.010   103.425    10.060     0.000     6.201     9.081     0.000     0.000     0.000     0.000     0.000     0.000     2.880     0.048     0.001 .00000E+00 0.000E+00 0.000E+00 0.000E+00 0.000E+00 0.000E+00
BIGSUB   2        0 2015.43327E+03   229.381     6.100  1032.576   229.175   108.738     9.358     0.003     5.389    10.743     0.000     0.000     0.000     0.000     0.000     0.000     4.820     0.049     0.002 .00000E+00 0.000E+00 0.000E+00 0.000E+00 0.000E+00 0.000E+00
BIGSUB   3        0 2015.32812E+03   229.474    38.400  1042.069   195.436    39.386    17.503     0.000     6.935    29.742     0.000     0.000     0.000     0.000     0.000     0.000    21.829     0.056     0.000 .00000E+00 0.000E+00 0.000E+00 0.000E+00 0.000E+00 0.000E+00
BIGSUB   4        0 2015.83628E+03   226.016    38.400  1066.099   204.299    55.748     7.555     0.000     2.537    24.705     0.000     0.000     0.000     0.000     0.000     0.000    21.704     0.092     0.000 .00000E+00 0.000E+00 0.000E+00 0.000E+00 0.000E+00 0.000E+00
BIGSUB   5        0 2015.53492E+03   228.142     6.100  1077.528   209.420    67.067    20.957     0.004    12.421    20.988     0.000     0.000     0.000     0.000     0.000     0.000     7.330     0.027     0.002 .00000E+00 0.000E+00 0.000E+00 0.000E+00 0.000E+00 0.000E+00
BIGSUB   6        0 2015.28785E+03   320.412    18.109  1045.411   314.692   169.885    23.529     0.883    19.766    26.111     0.539     0.640     0.078     0.001     0.000     0.107     2.779     0.068     0.005 .00000E+00 0.000E+00 0.000E+00 0.000E+00 0.000E+00 0.000E+00
BIGSUB   7        0 2015.51917E+03   333.495    42.607   880.337   313.685   176.529    40.841     1.763    12.733    29.565     1.110     1.471     0.187     0.009     0.000     0.236    12.035     0.076     0.001 .00000E+00 0.000E+00 0.000E+00 0.000E+00 0.000E+00 0.000E+00
BIGSUB   8        0 2015.73656E+03   225.999    38.400  1065.916   184.764    30.797    15.952     5.101     6.226    37.091     4.168     2.404     0.294     0.017     0.001     0.388    25.034     0.308     0.000 .00000E+00 0.000E+00 0.000E+00 0.000E+00 0.000E+00 0.000E+00
BIGSUB   9        0 2015.51556E+03   386.021    69.624   613.443   190.639    69.978   109.224    11.837   119.748   214.892    11.579     7.296     0.894     0.004     0.001     0.834    75.377     0.135     0.008 .00000E+00 0.000E+00 0.000E+00 0.000E+00 0.000E+00 0.000E+00
BIGSUB  10        0 2015.53154E+03   354.891    35.784   863.130   207.355    52.240    88.422     9.423    80.954   148.739    13.410     9.903     1.227     0.013     0.002     1.252    51.720     0.136     0.014 .00000E+00 0.000E+00 0.000E+00 0.000E+00 0.000E+00 0.000E+00
BIGSUB  11        0 2015.50741E+03   354.738    35.784   861.644   217.226    64.054   124.633    11.874   146.239   170.499     3.821     7.716     0.980     0.047     0.004     1.152     2.657     0.031     0.052 .00000E+00 0.000E+00 0.000E+00 0.000E+00 0.000E+00 0.000E+00
BIGSUB  12        0 2015.46168E+03   486.544    73.028   618.196   229.926    72.344   107.573    55.527   111.608   269.567   191.424    23.428     2.895     0.002     0.003     2.448    94.688     0.093     0.005 .00000E+00 0.000E+00 0.000E+00 0.000E+00 0.000E+00 0.000E+00
BIGSUB  13        0 2015.35104E+03   472.658    32.326   680.518   220.883    58.698    77.599    84.039    76.836   257.824   648.825    25.630     3.158     0.018     0.004     2.693    91.362     0.183     0.004 .00000E+00 0.000E+00 0.000E+00 0.000E+00 0.000E+00 0.000E+00
BIGSUB   1        0  6.0.49654E+03   299.343    11.535  1019.965   253.782   103.425    33.418     0.000    19.663    24.206     0.000     0.000     0.000     0.000     0.000     0.000     4.542     0.051     0.007 .00000E+00 0.000E+00 0.000E+00 0.000E+00 0.000E+00 0.000E+00
BIGSUB   2        0  6.0.43327E+03   333.578    11.536   979.061   290.532   108.738    24.643     1.274    14.313    24.714     0.305     0.488     0.060     0.001     0.000     0.091     7.948     0.081     0.004 .00000E+00 0.000E+00 0.000E+00 0.000E+00 0.000E+00 0.000E+00
BIGSUB   3        0  6.0.32812E+03   333.712    34.683   987.165   251.434    39.386    43.083     1.586    26.219    66.004     0.248     0.671     0.082     0.000     0.001     0.105    36.153     0.162     0.001 .00000E+00 0.000E+00 0.000E+00 0.000E+00 0.000E+00 0.000E+00
BIGSUB   4        0  6.0.83628E+03   332.794    34.683  1009.327   270.734    55.748    21.241     1.025    11.390    50.067     0.122     0.406     0.050     0.000     0.000     0.060    36.643     0.263     0.001 .00000E+00 0.000E+00 0.000E+00 0.000E+00 0.000E+00 0.000E+00
BIGSUB   5        0  6.0.53492E+03   333.366    11.535  1020.614   264.003    67.067    50.467     1.709    32.915    49.120     0.375     0.650     0.080     0.001     0.001     0.125    12.089     0.063     0.006 .00000E+00 0.000E+00 0.000E+00 0.000E+00 0.000E+00 0.000E+00
BIGSUB   6        0  6.0.28785E+03   393.383    14.078  1017.974   333.697   169.885    46.518     0.867    23.852    30.178     0.430     0.550     0.067     0.000     0.000     0.091     3.242     0.093     0.010 .00000E+00 0.000E+00 0.000E+00 0.000E+00 0.000E+00 0.000E+00
BIGSUB   7        0  6.0.51917E+03   407.522    41.462  1065.515   329.560   176.529    61.940     1.350    38.519    57.380     1.178     1.412     0.174     0.002     0.000     0.219    14.513     0.129     0.021 .00000E+00 0.000E+00 0.000E+00 0.000E+00 0.000E+00 0.000E+00
BIGSUB   8        0  6.0.73656E+03   332.769    34.683  1009.150   244.748    30.797    28.793    21.188    16.301    75.744    25.104     8.584     1.052     0.026     0.005     1.393    36.874     0.240     0.001 .00000E+00 0.000E+00 0.000E+00 0.000E+00 0.000E+00 0.000E+00
BIGSUB   9        0  6.0.51556E+03   596.325   159.163   656.308   217.540    69.978   212.535    39.364   177.598   354.697    21.572    17.065     2.091     0.014     0.006     1.933   126.839     0.272     0.014 .00000E+00 0.000E+00 0.000E+00 0.000E+00 0.000E+00 0.000E+00
BIGSUB  10        0  6.0.53154E+03   453.720    52.054  1020.139   236.219    52.240   133.543    12.422    81.237   171.478    14.571     8.883     1.093     0.015     0.003     1.117    71.226     0.217     0.012 .00000E+00 0.000E+00 0.000E+00 0.000E+00 0.000E+00 0.000E+00
BIGSUB  11        0  6.0.50741E+03   453.525    52.054  1019.452   245.253    64.054   191.552    13.284   135.094   161.036     3.158     6.838     0.851     0.037     0.004     0.966     3.150     0.034     0.043 .00000E+00 0.000E+00 0.000E+00 0.000E+00 0.000E+00 0.000E+00
BIGSUB  12        0  6.0.46168E+03   762.219   173.576   658.807   253.257    72.344   250.685    81.984   212.662   483.746   152.794    20.205     2.500     0.010     0.004     2.116   176.307     0.250     0.018 .00000E+00 0.000E+00 0.000E+00 0.000E+00 0.000E+00 0.000E+00
BIGSUB  13        0  6.0.35104E+03   674.788    13.646   652.656   254.733    58.698   160.832   108.318   123.564   390.564   407.746    20.517     2.539     0.049     0.004     2.138   150.656     0.459     0.013 .00000E+00 0.000E+00 0.000E+00 0.000E+00 0.000E+00 0.000E+00
