1
    SWAT Dec 23 2016    VER 2016/Rev 664                                                                 0/ 0/   0      0: 0: 0

    General Input/Output section (file.cio):                                        
    4/30/2018 12:00:00 AM ARCGIS-SWAT interface AV                                  
                                                                                    


       SUB      GIS  MON   AREAkm2  PRECIPmm SNOMELTmm     PETmm      ETmm      SWmm    PERCmm    SURQmm    GW_Qmm    WYLDmm  SYLDt/ha ORGNkg/ha ORGPkg/haNSURQkg/ha SOLPkg/ha SEDPkg/ha LAT Q(mm)LATNO3kg/hGWNO3kg/haCHOLAmic/LCBODU mg/L DOXQ mg/L TNO3kg/ha   QTILEmm TVAPkg/ha
BIGSUB   1        0    1.49654E+03    51.697     1.800    17.984    12.208    86.839     8.709     0.000     0.024     0.873     0.000     0.000     0.000     0.000     0.000     0.000     0.849     0.012     0.000 .00000E+00 0.000E+00 0.000E+00 0.000E+00 0.000E+00 0.000E+00
BIGSUB   2        0    1.43327E+03    51.680     1.800    18.148    13.148    81.568     8.527     0.010     0.071     1.535     0.001     0.001     0.000     0.000     0.000     0.000     1.421     0.032     0.000 .00000E+00 0.000E+00 0.000E+00 0.000E+00 0.000E+00 0.000E+00
BIGSUB   3        0    1.32812E+03    51.701    10.600    18.519    13.298    42.601    17.517     0.000     0.106     6.529     0.000     0.000     0.000     0.000     0.000     0.000     6.368     0.086     0.000 .00000E+00 0.000E+00 0.000E+00 0.000E+00 0.000E+00 0.000E+00
BIGSUB   4        0    1.83628E+03    51.705    10.600    17.835    13.264    57.111     9.687     0.000     0.000     6.262     0.000     0.000     0.000     0.000     0.000     0.000     6.240     0.093     0.000 .00000E+00 0.000E+00 0.000E+00 0.000E+00 0.000E+00 0.000E+00
BIGSUB   5        0    1.53492E+03    51.718     1.800    17.909    12.932    51.721    19.842     0.014     0.109     2.387     0.001     0.002     0.000     0.000     0.000     0.000     2.189     0.027     0.000 .00000E+00 0.000E+00 0.000E+00 0.000E+00 0.000E+00 0.000E+00
BIGSUB   6        0    1.28785E+03    54.871     2.000     9.063     8.237   156.278     2.558     0.000     0.000     0.420     0.000     0.000     0.000     0.000     0.000     0.000     0.416     0.009     0.000 .00000E+00 0.000E+00 0.000E+00 0.000E+00 0.000E+00 0.000E+00
BIGSUB   7        0    1.51917E+03    57.603    24.307     6.277     5.520   212.074    13.134     0.050     0.170     1.951     0.048     0.042     0.005     0.000     0.000     0.008     1.713     0.023     0.000 .00000E+00 0.000E+00 0.000E+00 0.000E+00 0.000E+00 0.000E+00
BIGSUB   8        0    1.73656E+03    51.701    10.600    17.820    12.566    40.567    11.814     2.400     1.607    10.934     1.283     1.182     0.145     0.002     0.001     0.188     6.855     0.126     0.000 .00000E+00 0.000E+00 0.000E+00 0.000E+00 0.000E+00 0.000E+00
BIGSUB   9        0    1.51556E+03    89.880    56.577     1.468     1.225    71.626    58.526     1.820    25.653    52.745     3.203     2.171     0.266     0.001     0.000     0.234    24.368     0.194     0.017 .00000E+00 0.000E+00 0.000E+00 0.000E+00 0.000E+00 0.000E+00
BIGSUB  10        0    1.53154E+03    59.338    26.017     5.481     4.576    55.934    35.755     0.157     8.617    21.578     0.325     0.253     0.031     0.002     0.000     0.028    12.356     0.160     0.003 .00000E+00 0.000E+00 0.000E+00 0.000E+00 0.000E+00 0.000E+00
BIGSUB  11        0    1.50741E+03    59.313    26.017     5.468     4.499    67.339    49.092     0.154    14.885    16.114     0.043     0.095     0.011     0.008     0.000     0.012     0.406     0.008     0.013 .00000E+00 0.000E+00 0.000E+00 0.000E+00 0.000E+00 0.000E+00
BIGSUB  12        0    1.46168E+03    89.846    56.577     1.424     1.326    74.254    54.794     1.653    29.347    58.874     3.199     1.650     0.202     0.001     0.000     0.169    27.059     0.211     0.017 .00000E+00 0.000E+00 0.000E+00 0.000E+00 0.000E+00 0.000E+00
BIGSUB  13        0    1.35104E+03    83.271     6.400     3.420     3.300    60.138    42.972     3.756     8.253    39.829     7.430     2.094     0.259     0.002     0.000     0.210    27.390     0.237     0.003 .00000E+00 0.000E+00 0.000E+00 0.000E+00 0.000E+00 0.000E+00
BIGSUB   1        0    2.49654E+03    10.099     0.000    37.932    17.239    78.908     0.672     0.000     2.213     2.662     0.000     0.000     0.000     0.000     0.000     0.000     0.449     0.004     0.000 .00000E+00 0.000E+00 0.000E+00 0.000E+00 0.000E+00 0.000E+00
BIGSUB   2        0    2.43327E+03    10.096     0.000    36.361    18.837    71.936     0.666     0.000     2.063     2.958     0.000     0.000     0.000     0.000     0.000     0.000     0.824     0.023     0.002 .00000E+00 0.000E+00 0.000E+00 0.000E+00 0.000E+00 0.000E+00
BIGSUB   3        0    2.32812E+03    10.100     0.900    34.898    18.240    31.952     1.513     0.000     3.021     6.444     0.000     0.000     0.000     0.000     0.000     0.000     3.288     0.066     0.001 .00000E+00 0.000E+00 0.000E+00 0.000E+00 0.000E+00 0.000E+00
BIGSUB   4        0    2.83628E+03    10.101     0.900    35.416    19.710    45.602     0.874     0.000     0.895     4.321     0.000     0.000     0.000     0.000     0.000     0.000     3.360     0.086     0.000 .00000E+00 0.000E+00 0.000E+00 0.000E+00 0.000E+00 0.000E+00
BIGSUB   5        0    2.53492E+03    10.104     0.000    37.883    18.818    41.186     1.491     0.000     4.795     6.236     0.000     0.000     0.000     0.000     0.000     0.000     1.277     0.025     0.003 .00000E+00 0.000E+00 0.000E+00 0.000E+00 0.000E+00 0.000E+00
BIGSUB   6        0    2.28785E+03    18.107     0.000    41.117    27.027   147.226     0.054     0.000     0.008     0.250     0.000     0.000     0.000     0.000     0.000     0.000     0.226     0.003     0.000 .00000E+00 0.000E+00 0.000E+00 0.000E+00 0.000E+00 0.000E+00
BIGSUB   7        0    2.51917E+03    18.099     1.300    30.632    23.021   204.302     2.283     0.000     1.235     2.407     0.000     0.000     0.000     0.000     0.000     0.000     1.085     0.023     0.001 .00000E+00 0.000E+00 0.000E+00 0.000E+00 0.000E+00 0.000E+00
BIGSUB   8        0    2.73656E+03    10.100     0.900    35.401    18.645    29.547     1.372     0.017     3.545     6.137     0.000     0.009     0.001     0.000     0.000     0.002     2.454     0.037     0.001 .00000E+00 0.000E+00 0.000E+00 0.000E+00 0.000E+00 0.000E+00
BIGSUB   9        0    2.51556E+03    18.101     1.300    19.485    11.464    68.541     6.124     0.001    29.699    36.529     0.000     0.000     0.000     0.000     0.000     0.000     5.736     0.027     0.016 .00000E+00 0.000E+00 0.000E+00 0.000E+00 0.000E+00 0.000E+00
BIGSUB  10        0    2.53154E+03    18.106     1.300    31.316    17.792    50.809     3.276     0.000    11.916    16.066     0.000     0.000     0.000     0.000     0.000     0.000     3.587     0.025     0.005 .00000E+00 0.000E+00 0.000E+00 0.000E+00 0.000E+00 0.000E+00
BIGSUB  11        0    2.50741E+03    18.099     1.300    31.245    17.236    63.071     5.036     0.000    20.865    21.998     0.000     0.000     0.000     0.000     0.000     0.000     0.312     0.007     0.018 .00000E+00 0.000E+00 0.000E+00 0.000E+00 0.000E+00 0.000E+00
BIGSUB  12        0    2.46168E+03    18.094     1.300    19.510    13.625    70.160     4.848     0.000    30.894    37.829     0.000     0.000     0.000     0.000     0.000     0.000     5.939     0.028     0.014 .00000E+00 0.000E+00 0.000E+00 0.000E+00 0.000E+00 0.000E+00
BIGSUB  13        0    2.35104E+03    18.090     1.800    22.796    14.671    55.754     3.847     0.032    13.768    19.924     0.041     0.017     0.002     0.000     0.000     0.002     5.542     0.032     0.004 .00000E+00 0.000E+00 0.000E+00 0.000E+00 0.000E+00 0.000E+00
BIGSUB   1        0    3.49654E+03    21.199     0.000    84.946    23.234    76.683     0.000     0.000     2.594     2.772     0.000     0.000     0.000     0.000     0.000     0.000     0.177     0.001     0.000 .00000E+00 0.000E+00 0.000E+00 0.000E+00 0.000E+00 0.000E+00
BIGSUB   2        0    3.43327E+03    21.192     0.000    80.571    25.975    66.852     0.000     0.000     2.411     2.781     0.000     0.000     0.000     0.000     0.000     0.000     0.275     0.003     0.001 .00000E+00 0.000E+00 0.000E+00 0.000E+00 0.000E+00 0.000E+00
BIGSUB   3        0    3.32812E+03    21.201     1.800    79.738    23.047    28.515     0.000     0.000     3.883     5.442     0.000     0.000     0.000     0.000     0.000     0.000     1.371     0.003     0.001 .00000E+00 0.000E+00 0.000E+00 0.000E+00 0.000E+00 0.000E+00
BIGSUB   4        0    3.83628E+03    21.202     1.800    81.041    25.337    39.721     0.000     0.000     1.593     3.200     0.000     0.000     0.000     0.000     0.000     0.000     1.509     0.005     0.000 .00000E+00 0.000E+00 0.000E+00 0.000E+00 0.000E+00 0.000E+00
BIGSUB   5        0    3.53492E+03    21.208     0.000    84.941    23.726    38.199     0.000     0.000     5.576     6.222     0.000     0.000     0.000     0.000     0.000     0.000     0.427     0.002     0.002 .00000E+00 0.000E+00 0.000E+00 0.000E+00 0.000E+00 0.000E+00
BIGSUB   6        0    3.28785E+03    35.513     0.000    71.425    32.622   149.817     0.109     0.000     0.150     0.333     0.000     0.000     0.000     0.000     0.000     0.000     0.157     0.001     0.000 .00000E+00 0.000E+00 0.000E+00 0.000E+00 0.000E+00 0.000E+00
BIGSUB   7        0    3.51917E+03    35.498     1.300    52.546    29.315   205.489     0.182     0.000     1.657     2.388     0.000     0.000     0.000     0.000     0.000     0.000     0.588     0.005     0.001 .00000E+00 0.000E+00 0.000E+00 0.000E+00 0.000E+00 0.000E+00
BIGSUB   8        0    3.73656E+03    21.201     1.800    81.025    21.726    25.580     0.447     0.984     3.108     6.105     2.415     0.964     0.118     0.016     0.000     0.144     1.854     0.012     0.000 .00000E+00 0.000E+00 0.000E+00 0.000E+00 0.000E+00 0.000E+00
BIGSUB   9        0    3.51556E+03    35.501     1.300    42.557    19.350    69.333     5.668     0.105    26.932    33.134     0.257     0.164     0.020     0.000     0.000     0.017     4.901     0.013     0.007 .00000E+00 0.000E+00 0.000E+00 0.000E+00 0.000E+00 0.000E+00
BIGSUB  10        0    3.53154E+03    35.513     1.300    53.468    21.519    51.756     5.038     0.053    12.513    16.683     0.047     0.047     0.006     0.001     0.000     0.005     3.473     0.019     0.003 .00000E+00 0.000E+00 0.000E+00 0.000E+00 0.000E+00 0.000E+00
BIGSUB  11        0    3.50741E+03    35.497     1.300    53.337    21.126    65.108     7.969     0.092    20.833    22.026     0.013     0.036     0.004     0.003     0.000     0.005     0.166     0.004     0.010 .00000E+00 0.000E+00 0.000E+00 0.000E+00 0.000E+00 0.000E+00
BIGSUB  12        0    3.46168E+03    36.907     1.352    42.889    23.317    71.045     2.789     0.132    22.701    28.932     0.317     0.159     0.019     0.000     0.000     0.017     5.011     0.009     0.005 .00000E+00 0.000E+00 0.000E+00 0.000E+00 0.000E+00 0.000E+00
BIGSUB  13        0    3.35104E+03    36.900     0.000    50.382    23.783    57.652     3.038     1.659    14.346    22.227     2.381     0.673     0.083     0.008     0.000     0.070     5.555     0.014     0.002 .00000E+00 0.000E+00 0.000E+00 0.000E+00 0.000E+00 0.000E+00
BIGSUB   1        0    4.49654E+03     2.930     0.000    90.768    20.773    58.839     0.000     0.000     0.882     0.924     0.000     0.000     0.000     0.000     0.000     0.000     0.042     0.000     0.000 .00000E+00 0.000E+00 0.000E+00 0.000E+00 0.000E+00 0.000E+00
BIGSUB   2        0    4.43327E+03    29.289     0.000    87.280    36.533    59.240     0.000     0.000     0.737     1.158     0.000     0.000     0.000     0.000     0.000     0.000     0.340     0.003     0.000 .00000E+00 0.000E+00 0.000E+00 0.000E+00 0.000E+00 0.000E+00
BIGSUB   3        0    4.32812E+03    29.301     0.000    89.049    28.597    27.290     0.000     0.000     1.095     3.116     0.000     0.000     0.000     0.000     0.000     0.000     1.858     0.003     0.000 .00000E+00 0.000E+00 0.000E+00 0.000E+00 0.000E+00 0.000E+00
BIGSUB   4        0    4.83628E+03    29.303     0.000    91.308    29.552    37.371     0.000     0.000     0.480     2.595     0.000     0.000     0.000     0.000     0.000     0.000     2.028     0.004     0.000 .00000E+00 0.000E+00 0.000E+00 0.000E+00 0.000E+00 0.000E+00
BIGSUB   5        0    4.53492E+03    29.310     0.000    90.998    29.733    37.205     0.000     0.000     1.703     2.421     0.000     0.000     0.000     0.000     0.000     0.000     0.531     0.001     0.000 .00000E+00 0.000E+00 0.000E+00 0.000E+00 0.000E+00 0.000E+00
BIGSUB   6        0    4.28785E+03    70.527     0.000    92.749    58.295   156.761     4.520     0.201     0.235     0.906     0.079     0.098     0.012     0.000     0.000     0.018     0.443     0.018     0.000 .00000E+00 0.000E+00 0.000E+00 0.000E+00 0.000E+00 0.000E+00
BIGSUB   7        0    4.51917E+03    70.495    13.800    71.195    46.399   210.521    19.459     0.714     1.319     4.584     0.421     0.616     0.075     0.001     0.000     0.091     2.405     0.036     0.000 .00000E+00 0.000E+00 0.000E+00 0.000E+00 0.000E+00 0.000E+00
BIGSUB   8        0    4.73656E+03    29.301     0.000    91.299    28.521    23.514     0.077     0.141     0.799     3.670     0.209     0.086     0.011     0.001     0.000     0.014     2.590     0.008     0.000 .00000E+00 0.000E+00 0.000E+00 0.000E+00 0.000E+00 0.000E+00
BIGSUB   9        0    4.51556E+03    70.502    13.800    65.065    30.436    67.087    24.955     5.630    19.185    41.491    13.653     8.301     1.017     0.004     0.001     0.880    15.640     0.072     0.003 .00000E+00 0.000E+00 0.000E+00 0.000E+00 0.000E+00 0.000E+00
BIGSUB  10        0    4.53154E+03    70.525    13.800    72.269    34.582    50.694    24.063     5.152    10.029    27.452     7.340     6.067     0.742     0.008     0.001     0.694    11.682     0.099     0.002 .00000E+00 0.000E+00 0.000E+00 0.000E+00 0.000E+00 0.000E+00
BIGSUB  11        0    4.50741E+03    70.495    13.800    72.063    33.628    62.558    37.220     5.708    17.121    24.069     1.428     3.374     0.408     0.017     0.002     0.449     0.375     0.009     0.008 .00000E+00 0.000E+00 0.000E+00 0.000E+00 0.000E+00 0.000E+00
BIGSUB  12        0    4.46168E+03   133.904    22.497    63.361    36.238    68.823    44.862    28.267    15.919    75.473   110.263    30.873     3.785     0.006     0.003     3.207    30.327     0.153     0.003 .00000E+00 0.000E+00 0.000E+00 0.000E+00 0.000E+00 0.000E+00
BIGSUB  13        0    4.35104E+03   133.877     0.000    74.221    38.632    55.547    25.970    48.453    11.580    83.685   197.261    18.687     2.308     0.052     0.004     1.935    23.047     0.120     0.002 .00000E+00 0.000E+00 0.000E+00 0.000E+00 0.000E+00 0.000E+00
BIGSUB   1        0    5.49654E+03    51.397     0.000    99.506    34.660    73.337     1.621     0.000     0.057     0.583     0.000     0.000     0.000     0.000     0.000     0.000     0.527     0.001     0.000 .00000E+00 0.000E+00 0.000E+00 0.000E+00 0.000E+00 0.000E+00
BIGSUB   2        0    5.43327E+03    51.381     0.000    96.037    41.771    65.980     1.890     0.001     0.074     1.085     0.000     0.000     0.000     0.000     0.000     0.000     0.941     0.005     0.000 .00000E+00 0.000E+00 0.000E+00 0.000E+00 0.000E+00 0.000E+00
BIGSUB   3        0    5.32812E+03    51.401     3.600    95.799    36.641    34.443     2.951     0.000     0.084     4.873     0.000     0.000     0.000     0.000     0.000     0.000     4.650     0.009     0.000 .00000E+00 0.000E+00 0.000E+00 0.000E+00 0.000E+00 0.000E+00
BIGSUB   4        0    5.83628E+03    51.405     3.600    99.667    37.943    45.381     0.742     0.000     0.000     4.801     0.000     0.000     0.000     0.000     0.000     0.000     4.728     0.007     0.000 .00000E+00 0.000E+00 0.000E+00 0.000E+00 0.000E+00 0.000E+00
BIGSUB   5        0    5.53492E+03    51.418     0.000    99.910    38.472    43.747     4.878     0.001     0.202     1.821     0.000     0.000     0.000     0.000     0.000     0.000     1.458     0.005     0.000 .00000E+00 0.000E+00 0.000E+00 0.000E+00 0.000E+00 0.000E+00
BIGSUB   6        0    5.28785E+03    61.523     0.000    89.268    59.086   155.170     3.550     0.057     0.709     1.297     0.024     0.031     0.004     0.000     0.000     0.006     0.479     0.004     0.000 .00000E+00 0.000E+00 0.000E+00 0.000E+00 0.000E+00 0.000E+00
BIGSUB   7        0    5.51917E+03    61.496     5.400    70.428    44.589   213.211    11.906     0.167     3.395     6.332     0.176     0.217     0.026     0.000     0.000     0.033     2.514     0.039     0.002 .00000E+00 0.000E+00 0.000E+00 0.000E+00 0.000E+00 0.000E+00
BIGSUB   8        0    5.73656E+03    51.401     3.600    99.660    37.432    26.965     3.095     2.037     0.178     7.708     1.745     0.860     0.105     0.004     0.000     0.143     5.373     0.012     0.000 .00000E+00 0.000E+00 0.000E+00 0.000E+00 0.000E+00 0.000E+00
BIGSUB   9        0    5.51556E+03    61.502     5.400    70.287    34.507    67.315    13.605     1.921    18.245    32.949     1.798     1.030     0.126     0.002     0.000     0.109    11.762     0.034     0.003 .00000E+00 0.000E+00 0.000E+00 0.000E+00 0.000E+00 0.000E+00
BIGSUB  10        0    5.53154E+03    61.522     5.400    70.799    33.531    51.347    16.640     1.657    12.462    24.158     1.499     1.204     0.147     0.007     0.000     0.139     9.380     0.069     0.004 .00000E+00 0.000E+00 0.000E+00 0.000E+00 0.000E+00 0.000E+00
BIGSUB  11        0    5.50741E+03    61.495     5.400    70.528    32.779    63.023    25.634     2.245    20.813    24.499     0.338     0.921     0.111     0.016     0.001     0.124     0.460     0.010     0.015 .00000E+00 0.000E+00 0.000E+00 0.000E+00 0.000E+00 0.000E+00
BIGSUB  12        0    5.46168E+03   153.697    13.500    71.136    45.127    69.195    46.990    27.467    25.506    88.344    62.848     3.668     0.450     0.009     0.001     0.390    34.261     0.136     0.008 .00000E+00 0.000E+00 0.000E+00 0.000E+00 0.000E+00 0.000E+00
BIGSUB  13        0    5.35104E+03   153.666     0.000    80.358    48.458    55.402    30.610    47.263    14.721    90.418   248.132     5.292     0.650     0.032     0.002     0.539    27.740     0.134     0.003 .00000E+00 0.000E+00 0.000E+00 0.000E+00 0.000E+00 0.000E+00
BIGSUB   1        0    6.49654E+03    87.694     0.000   116.324    58.725    81.357    19.136     0.000     2.557     4.290     0.000     0.000     0.000     0.000     0.000     0.000     1.733     0.019     0.001 .00000E+00 0.000E+00 0.000E+00 0.000E+00 0.000E+00 0.000E+00
BIGSUB   2        0    6.43327E+03    87.667     0.000   110.467    61.680    78.554    10.286     0.108     2.395     5.503     0.011     0.026     0.003     0.000     0.000     0.005     2.912     0.048     0.001 .00000E+00 0.000E+00 0.000E+00 0.000E+00 0.000E+00 0.000E+00
BIGSUB   3        0    6.32812E+03    87.702     0.300   114.897    57.402    29.373    22.591     0.069     4.059    16.966     0.011     0.028     0.003     0.000     0.000     0.004    12.663     0.137     0.001 .00000E+00 0.000E+00 0.000E+00 0.000E+00 0.000E+00 0.000E+00
BIGSUB   4        0    6.83628E+03    87.709     0.300   119.865    64.012    44.671    11.944     0.045     1.424    13.887     0.005     0.018     0.002     0.000     0.000     0.002    12.331     0.147     0.001 .00000E+00 0.000E+00 0.000E+00 0.000E+00 0.000E+00 0.000E+00
BIGSUB   5        0    6.53492E+03    87.731     0.000   116.667    55.676    46.477    24.578     0.172     5.906    10.682     0.015     0.040     0.005     0.000     0.000     0.007     4.395     0.046     0.002 .00000E+00 0.000E+00 0.000E+00 0.000E+00 0.000E+00 0.000E+00
BIGSUB   6        0    6.28785E+03    73.028     0.000   117.202    70.734   138.567    17.621     0.547     1.294     2.737     0.348     0.454     0.056     0.000     0.000     0.075     0.746     0.008     0.001 .00000E+00 0.000E+00 0.000E+00 0.000E+00 0.000E+00 0.000E+00
BIGSUB   7        0    6.51917E+03    72.995     4.600    89.858    51.440   197.167    32.962     1.018    12.146    17.480     0.904     1.176     0.143     0.000     0.000     0.176     3.852     0.071     0.016 .00000E+00 0.000E+00 0.000E+00 0.000E+00 0.000E+00 0.000E+00
BIGSUB   8        0    6.73656E+03    87.702     0.300   119.858    61.768    21.280    10.356    11.026     2.538    24.005    12.988     5.520     0.676     0.009     0.002     0.914    10.308     0.057     0.000 .00000E+00 0.000E+00 0.000E+00 0.000E+00 0.000E+00 0.000E+00
BIGSUB   9        0    6.51556E+03    73.002     4.600    78.610    37.920    54.670    26.119     5.528    19.863    42.787    12.873     4.437     0.543     0.001     0.001     0.485    16.370     0.066     0.005 .00000E+00 0.000E+00 0.000E+00 0.000E+00 0.000E+00 0.000E+00
BIGSUB  10        0    6.53154E+03    73.026     4.600    90.219    37.229    40.619    28.036     5.484    17.506    36.997    13.299     7.569     0.925     0.003     0.001     0.892    13.221     0.125     0.008 .00000E+00 0.000E+00 0.000E+00 0.000E+00 0.000E+00 0.000E+00
BIGSUB  11        0    6.50741E+03    72.994     4.600    89.987    36.086    53.960    39.703     5.699    27.816    35.319     2.533     5.021     0.607     0.006     0.002     0.680     0.636     0.012     0.030 .00000E+00 0.000E+00 0.000E+00 0.000E+00 0.000E+00 0.000E+00
BIGSUB  12        0    6.46168E+03    78.813     4.968    79.444    46.478    52.200    24.047     6.880    36.866    64.296    12.873     0.403     0.049     0.000     0.000     0.042    19.200     0.056     0.014 .00000E+00 0.000E+00 0.000E+00 0.000E+00 0.000E+00 0.000E+00
BIGSUB  13        0    6.35104E+03    78.797    18.360    86.632    44.260    39.860    18.141    15.494    20.757    54.295    35.609     0.412     0.051     0.005     0.000     0.042    17.186     0.079     0.006 .00000E+00 0.000E+00 0.000E+00 0.000E+00 0.000E+00 0.000E+00
BIGSUB   1        0    7.49654E+03     7.500     0.000   144.397    20.858    67.955     0.000     0.000     4.872     5.063     0.000     0.000     0.000     0.000     0.000     0.000     0.191     0.004     0.003 .00000E+00 0.000E+00 0.000E+00 0.000E+00 0.000E+00 0.000E+00
BIGSUB   2        0    7.43327E+03     7.497     0.000   137.748    24.279    61.706     0.000     0.000     4.421     4.834     0.000     0.000     0.000     0.000     0.000     0.000     0.274     0.004     0.002 .00000E+00 0.000E+00 0.000E+00 0.000E+00 0.000E+00 0.000E+00
BIGSUB   3        0    7.32812E+03     7.500     0.000   140.273    21.131    14.819     0.000     0.000     8.893     9.848     0.000     0.000     0.000     0.000     0.000     0.000     0.667     0.006     0.002 .00000E+00 0.000E+00 0.000E+00 0.000E+00 0.000E+00 0.000E+00
BIGSUB   4        0    7.83628E+03     7.501     0.000   144.603    26.114    25.127     0.000     0.000     3.976     4.840     0.000     0.000     0.000     0.000     0.000     0.000     0.719     0.009     0.001 .00000E+00 0.000E+00 0.000E+00 0.000E+00 0.000E+00 0.000E+00
BIGSUB   5        0    7.53492E+03     7.503     0.000   144.727    20.643    33.252     0.000     0.000    10.682    11.434     0.000     0.000     0.000     0.000     0.000     0.000     0.419     0.006     0.003 .00000E+00 0.000E+00 0.000E+00 0.000E+00 0.000E+00 0.000E+00
BIGSUB   6        0    7.28785E+03     0.600     0.000   157.342    37.554   101.627     0.000     0.000     1.193     1.529     0.000     0.000     0.000     0.000     0.000     0.000     0.100     0.001     0.001 .00000E+00 0.000E+00 0.000E+00 0.000E+00 0.000E+00 0.000E+00
BIGSUB   7        0    7.51917E+03     0.600     0.000   120.742    24.032   173.733     0.000     0.000    14.236    15.045     0.000     0.000     0.000     0.000     0.000     0.000     0.190     0.004     0.011 .00000E+00 0.000E+00 0.000E+00 0.000E+00 0.000E+00 0.000E+00
BIGSUB   8        0    7.73656E+03     7.500     0.000   144.593    18.467     9.181     0.000     0.000     3.819     4.660     0.000     0.000     0.000     0.000     0.000     0.000     0.662     0.004     0.000 .00000E+00 0.000E+00 0.000E+00 0.000E+00 0.000E+00 0.000E+00
BIGSUB   9        0    7.51556E+03     0.600     0.000    95.496    23.131    32.139     0.000     0.000    16.191    17.239     0.000     0.000     0.000     0.000     0.000     0.000     0.022     0.000     0.002 .00000E+00 0.000E+00 0.000E+00 0.000E+00 0.000E+00 0.000E+00
BIGSUB  10        0    7.53154E+03     0.600     0.000   118.627    13.292    27.932     0.000     0.000    17.051    17.949     0.000     0.000     0.000     0.000     0.000     0.000     0.036     0.000     0.005 .00000E+00 0.000E+00 0.000E+00 0.000E+00 0.000E+00 0.000E+00
BIGSUB  11        0    7.50741E+03     0.600     0.000   118.345    11.085    43.474     0.000     0.000    27.721    29.136     0.000     0.000     0.000     0.000     0.000     0.000     0.141     0.003     0.017 .00000E+00 0.000E+00 0.000E+00 0.000E+00 0.000E+00 0.000E+00
BIGSUB  12        0    7.46168E+03     0.624     0.000    96.530    28.020    24.795     0.000     0.000    24.072    25.496     0.000     0.000     0.000     0.000     0.000     0.000     0.019     0.000     0.005 .00000E+00 0.000E+00 0.000E+00 0.000E+00 0.000E+00 0.000E+00
BIGSUB  13        0    7.35104E+03     0.624     0.000   108.287    21.559    18.914     0.000     0.000    15.471    16.410     0.000     0.000     0.000     0.000     0.000     0.000     0.028     0.000     0.002 .00000E+00 0.000E+00 0.000E+00 0.000E+00 0.000E+00 0.000E+00
BIGSUB   1        0    8.49654E+03     0.300     0.000   146.252     9.270    58.984     0.000     0.000     2.182     2.206     0.000     0.000     0.000     0.000     0.000     0.000     0.024     0.001     0.001 .00000E+00 0.000E+00 0.000E+00 0.000E+00 0.000E+00 0.000E+00
BIGSUB   2        0    8.43327E+03     0.300     0.000   140.568     9.630    52.373     0.000     0.000     1.753     1.919     0.000     0.000     0.000     0.000     0.000     0.000     0.032     0.000     0.000 .00000E+00 0.000E+00 0.000E+00 0.000E+00 0.000E+00 0.000E+00
BIGSUB   3        0    8.32812E+03     0.300     0.900   144.377     9.088     6.631     0.000     0.000     3.114     3.426     0.000     0.000     0.000     0.000     0.000     0.000     0.031     0.000     0.000 .00000E+00 0.000E+00 0.000E+00 0.000E+00 0.000E+00 0.000E+00
BIGSUB   4        0    8.83628E+03     0.300     0.900   149.406    13.363    12.665     0.000     0.000     1.260     1.435     0.000     0.000     0.000     0.000     0.000     0.000     0.033     0.001     0.000 .00000E+00 0.000E+00 0.000E+00 0.000E+00 0.000E+00 0.000E+00
BIGSUB   5        0    8.53492E+03     0.300     0.000   146.426     9.360    24.196     0.000     0.000     4.300     4.660     0.000     0.000     0.000     0.000     0.000     0.000     0.038     0.001     0.001 .00000E+00 0.000E+00 0.000E+00 0.000E+00 0.000E+00 0.000E+00
BIGSUB   6        0    8.28785E+03     6.654     0.000   135.223    17.328    90.944     0.000     0.000     0.516     0.779     0.000     0.000     0.000     0.000     0.000     0.000     0.043     0.000     0.000 .00000E+00 0.000E+00 0.000E+00 0.000E+00 0.000E+00 0.000E+00
BIGSUB   7        0    8.51917E+03    10.237     4.600    92.127    15.695   162.606     0.000     0.000     5.087     5.698     0.000     0.000     0.000     0.000     0.000     0.000     0.055     0.001     0.002 .00000E+00 0.000E+00 0.000E+00 0.000E+00 0.000E+00 0.000E+00
BIGSUB   8        0    8.73656E+03     0.300     0.900   149.391     7.028     3.041     0.000     0.000     0.712     0.930     0.000     0.000     0.000     0.000     0.000     0.000     0.052     0.000     0.000 .00000E+00 0.000E+00 0.000E+00 0.000E+00 0.000E+00 0.000E+00
BIGSUB   9        0    8.51556E+03    20.181     4.600    65.260    12.071    24.196     0.000     0.000     5.819     7.137     0.000     0.000     0.000     0.000     0.000     0.000     0.472     0.003     0.000 .00000E+00 0.000E+00 0.000E+00 0.000E+00 0.000E+00 0.000E+00
BIGSUB  10        0    8.53154E+03    10.871     4.600    91.342     8.978    23.270     0.000     0.000     4.057     5.081     0.000     0.000     0.000     0.000     0.000     0.000     0.291     0.005     0.001 .00000E+00 0.000E+00 0.000E+00 0.000E+00 0.000E+00 0.000E+00
BIGSUB  11        0    8.50741E+03    10.867     4.600    91.189     6.041    42.020     0.000     0.000    11.044    12.179     0.000     0.000     0.000     0.000     0.000     0.000     0.052     0.001     0.003 .00000E+00 0.000E+00 0.000E+00 0.000E+00 0.000E+00 0.000E+00
BIGSUB  12        0    8.46168E+03    20.174     4.600    65.858    11.389    17.463     0.000     0.000     4.436     6.150     0.000     0.000     0.000     0.000     0.000     0.000     0.539     0.003     0.000 .00000E+00 0.000E+00 0.000E+00 0.000E+00 0.000E+00 0.000E+00
BIGSUB  13        0    8.35104E+03    12.683     0.000    89.554    16.613    12.973     0.000     0.000     6.044     8.787     0.000     0.000     0.000     0.000     0.000     0.000     1.977     0.017     0.000 .00000E+00 0.000E+00 0.000E+00 0.000E+00 0.000E+00 0.000E+00
BIGSUB   1        0    9.49654E+03    25.298     0.000   109.021    19.313    64.699     0.000     0.000     0.096     0.338     0.000     0.000     0.000     0.000     0.000     0.000     0.242     0.001     0.000 .00000E+00 0.000E+00 0.000E+00 0.000E+00 0.000E+00 0.000E+00
BIGSUB   2        0    9.43327E+03    25.290     0.000   104.509    17.467    59.810     0.000     0.000     0.067     0.529     0.000     0.000     0.000     0.000     0.000     0.000     0.354     0.003     0.000 .00000E+00 0.000E+00 0.000E+00 0.000E+00 0.000E+00 0.000E+00
BIGSUB   3        0    9.32812E+03    25.301     0.000   101.182    16.374    13.568     0.000     0.000     0.103     2.240     0.000     0.000     0.000     0.000     0.000     0.000     1.911     0.024     0.000 .00000E+00 0.000E+00 0.000E+00 0.000E+00 0.000E+00 0.000E+00
BIGSUB   4        0    9.83628E+03    25.303     0.000   102.744    16.360    19.463     0.000     0.000     0.032     2.200     0.000     0.000     0.000     0.000     0.000     0.000     2.054     0.032     0.000 .00000E+00 0.000E+00 0.000E+00 0.000E+00 0.000E+00 0.000E+00
BIGSUB   5        0    9.53492E+03    25.309     0.000   108.949    17.714    31.179     0.000     0.000     0.163     0.974     0.000     0.000     0.000     0.000     0.000     0.000     0.554     0.006     0.000 .00000E+00 0.000E+00 0.000E+00 0.000E+00 0.000E+00 0.000E+00
BIGSUB   6        0    9.28785E+03    21.508     0.000    93.960    17.463    94.894     0.000     0.000     0.047     0.307     0.000     0.000     0.000     0.000     0.000     0.000     0.087     0.000     0.000 .00000E+00 0.000E+00 0.000E+00 0.000E+00 0.000E+00 0.000E+00
BIGSUB   7        0    9.51917E+03    21.499     6.938    69.131    21.357   167.833     0.000     0.000     0.580     1.532     0.000     0.000     0.000     0.000     0.000     0.000     0.520     0.001     0.000 .00000E+00 0.000E+00 0.000E+00 0.000E+00 0.000E+00 0.000E+00
BIGSUB   8        0    9.73656E+03    25.301     0.000   102.728    16.321     6.567     1.829     0.847     0.098     3.793     0.242     0.449     0.055     0.000     0.000     0.068     2.716     0.017     0.000 .00000E+00 0.000E+00 0.000E+00 0.000E+00 0.000E+00 0.000E+00
BIGSUB   9        0    9.51556E+03    21.501    16.881    48.858    18.811    34.384     1.900     0.101     0.849     7.662     0.145     0.055     0.007     0.000     0.000     0.006     6.069     0.007     0.000 .00000E+00 0.000E+00 0.000E+00 0.000E+00 0.000E+00 0.000E+00
BIGSUB  10        0    9.53154E+03    21.508     7.567    67.494    17.506    30.142     0.797     0.000     0.256     3.401     0.000     0.000     0.000     0.000     0.000     0.000     2.585     0.011     0.000 .00000E+00 0.000E+00 0.000E+00 0.000E+00 0.000E+00 0.000E+00
BIGSUB  11        0    9.50741E+03    21.498     7.567    67.366    20.150    49.547     0.000     0.000     0.416     1.322     0.000     0.000     0.000     0.000     0.000     0.000     0.081     0.001     0.000 .00000E+00 0.000E+00 0.000E+00 0.000E+00 0.000E+00 0.000E+00
BIGSUB  12        0    9.46168E+03    21.493    16.881    49.266    22.972    25.261     0.009     0.025     0.880     8.057     0.038     0.004     0.000     0.000     0.000     0.000     6.264     0.006     0.000 .00000E+00 0.000E+00 0.000E+00 0.000E+00 0.000E+00 0.000E+00
BIGSUB  13        0    9.35104E+03    21.488     0.000    56.164    17.982    12.959     0.000     0.000     0.280     4.412     0.000     0.000     0.000     0.000     0.000     0.000     3.551     0.006     0.000 .00000E+00 0.000E+00 0.000E+00 0.000E+00 0.000E+00 0.000E+00
BIGSUB   1        0   10.49654E+03    32.598     0.000    59.125    17.629    78.685     0.592     0.000     0.000     0.304     0.000     0.000     0.000     0.000     0.000     0.000     0.303     0.002     0.000 .00000E+00 0.000E+00 0.000E+00 0.000E+00 0.000E+00 0.000E+00
BIGSUB   2        0   10.43327E+03    32.588     0.000    57.964    15.804    75.556     0.477     0.000     0.000     0.529     0.000     0.000     0.000     0.000     0.000     0.000     0.442     0.001     0.000 .00000E+00 0.000E+00 0.000E+00 0.000E+00 0.000E+00 0.000E+00
BIGSUB   3        0   10.32812E+03    32.601     0.000    58.264    15.145    27.929     0.250     0.000     0.000     2.511     0.000     0.000     0.000     0.000     0.000     0.000     2.330     0.003     0.000 .00000E+00 0.000E+00 0.000E+00 0.000E+00 0.000E+00 0.000E+00
BIGSUB   4        0   10.83628E+03    32.603     0.000    58.279    14.445    34.551     0.000     0.000     0.000     2.632     0.000     0.000     0.000     0.000     0.000     0.000     2.540     0.004     0.000 .00000E+00 0.000E+00 0.000E+00 0.000E+00 0.000E+00 0.000E+00
BIGSUB   5        0   10.53492E+03    32.612     0.000    59.019    16.577    45.485     0.853     0.000     0.000     0.896     0.000     0.000     0.000     0.000     0.000     0.000     0.689     0.001     0.000 .00000E+00 0.000E+00 0.000E+00 0.000E+00 0.000E+00 0.000E+00
BIGSUB   6        0   10.28785E+03    50.019     0.000    58.316    15.604   128.941     0.000     0.000     0.000     0.391     0.000     0.000     0.000     0.000     0.000     0.000     0.252     0.003     0.000 .00000E+00 0.000E+00 0.000E+00 0.000E+00 0.000E+00 0.000E+00
BIGSUB   7        0   10.51917E+03    49.997     1.300    44.733    18.048   198.354     0.042     0.000     0.000     1.400     0.000     0.000     0.000     0.000     0.000     0.000     1.056     0.000     0.000 .00000E+00 0.000E+00 0.000E+00 0.000E+00 0.000E+00 0.000E+00
BIGSUB   8        0   10.73656E+03    32.601     0.000    58.262    15.003    18.736     1.766     0.004     0.568     3.909     0.000     0.001     0.000     0.000     0.000     0.000     3.218     0.006     0.000 .00000E+00 0.000E+00 0.000E+00 0.000E+00 0.000E+00 0.000E+00
BIGSUB   9        0   10.51556E+03    50.002     1.300    26.073    12.526    57.240     5.505     0.100     1.027     9.658     0.086     0.046     0.006     0.000     0.000     0.005     8.011     0.004     0.000 .00000E+00 0.000E+00 0.000E+00 0.000E+00 0.000E+00 0.000E+00
BIGSUB  10        0   10.53154E+03    50.018     1.300    43.537    14.995    48.008     9.933     0.142     0.541     7.463     0.082     0.088     0.011     0.000     0.000     0.014     6.326     0.019     0.000 .00000E+00 0.000E+00 0.000E+00 0.000E+00 0.000E+00 0.000E+00
BIGSUB  11        0   10.50741E+03    49.996     1.300    43.466    18.979    65.745    14.099     0.409     0.043     1.261     0.167     0.309     0.038     0.001     0.000     0.042     0.155     0.001     0.000 .00000E+00 0.000E+00 0.000E+00 0.000E+00 0.000E+00 0.000E+00
BIGSUB  12        0   10.46168E+03    49.983     1.300    26.192    14.418    50.128     1.441     0.028     0.093     9.135     0.014     0.003     0.000     0.000     0.000     0.000     8.317     0.002     0.000 .00000E+00 0.000E+00 0.000E+00 0.000E+00 0.000E+00 0.000E+00
BIGSUB  13        0   10.35104E+03    49.973     0.000    28.826    13.010    37.242     2.084     0.416     0.004    10.018     0.341     0.015     0.002     0.000     0.000     0.002     9.141     0.005     0.000 .00000E+00 0.000E+00 0.000E+00 0.000E+00 0.000E+00 0.000E+00
BIGSUB   1        0   11.49654E+03    46.297     2.500    30.231    19.369    97.981     6.738     0.000     1.079     1.997     0.000     0.000     0.000     0.000     0.000     0.000     0.919     0.009     0.001 .00000E+00 0.000E+00 0.000E+00 0.000E+00 0.000E+00 0.000E+00
BIGSUB   2        0   11.43327E+03    46.283     2.500    29.427    19.381    94.966     6.064     0.007     0.911     2.456     0.000     0.001     0.000     0.000     0.000     0.000     1.461     0.005     0.000 .00000E+00 0.000E+00 0.000E+00 0.000E+00 0.000E+00 0.000E+00
BIGSUB   3        0   11.32812E+03    46.301     5.900    29.138    20.018    38.150    10.222     0.000     1.118     7.457     0.000     0.000     0.000     0.000     0.000     0.000     6.187     0.012     0.000 .00000E+00 0.000E+00 0.000E+00 0.000E+00 0.000E+00 0.000E+00
BIGSUB   4        0   11.83628E+03    46.305     5.900    28.154    19.247    51.576     4.423     0.000     0.308     6.345     0.000     0.000     0.000     0.000     0.000     0.000     5.964     0.014     0.000 .00000E+00 0.000E+00 0.000E+00 0.000E+00 0.000E+00 0.000E+00
BIGSUB   5        0   11.53492E+03    46.317     2.500    30.116    20.261    55.459    13.886     0.009     2.029     4.443     0.000     0.001     0.000     0.003     0.000     0.000     2.222     0.005     0.000 .00000E+00 0.000E+00 0.000E+00 0.000E+00 0.000E+00 0.000E+00
BIGSUB   6        0   11.28785E+03    49.519     4.600    29.344    19.899   157.419     0.687     0.000     0.004     0.530     0.000     0.000     0.000     0.000     0.000     0.000     0.425     0.005     0.000 .00000E+00 0.000E+00 0.000E+00 0.000E+00 0.000E+00 0.000E+00
BIGSUB   7        0   11.51917E+03    49.497     1.300    21.169    17.712   217.641    10.276     0.000     0.389     2.799     0.000     0.000     0.000     0.000     0.000     0.000     2.154     0.009     0.000 .00000E+00 0.000E+00 0.000E+00 0.000E+00 0.000E+00 0.000E+00
BIGSUB   8        0   11.73656E+03    46.301     5.900    28.135    21.860    29.621     5.621     1.948     1.883    10.241     1.607     0.886     0.108     0.000     0.000     0.146     6.297     0.024     0.000 .00000E+00 0.000E+00 0.000E+00 0.000E+00 0.000E+00 0.000E+00
BIGSUB   9        0   11.51556E+03    49.502     1.300    10.718     8.303    67.848    18.546     0.001     2.798    15.990     0.001     0.000     0.000     0.000     0.000     0.000    12.754     0.043     0.000 .00000E+00 0.000E+00 0.000E+00 0.000E+00 0.000E+00 0.000E+00
BIGSUB  10        0   11.53154E+03    49.518     1.300    21.918    14.667    53.178    20.428     0.000     3.459    13.637     0.000     0.000     0.000     0.000     0.000     0.000     9.758     0.041     0.000 .00000E+00 0.000E+00 0.000E+00 0.000E+00 0.000E+00 0.000E+00
BIGSUB  11        0   11.50741E+03    49.496     1.300    21.855    16.295    64.947    33.543     0.001     4.882     5.901     0.000     0.000     0.000     0.000     0.000     0.000     0.412     0.003     0.001 .00000E+00 0.000E+00 0.000E+00 0.000E+00 0.000E+00 0.000E+00
BIGSUB  12        0   11.46168E+03    49.483     1.300    10.635     9.279    67.830    11.032     0.000     1.388    14.067     0.000     0.000     0.000     0.000     0.000     0.000    12.151     0.018     0.000 .00000E+00 0.000E+00 0.000E+00 0.000E+00 0.000E+00 0.000E+00
BIGSUB  13        0   11.35104E+03    49.473     0.000    14.025    11.108    53.350    10.651     0.381     1.153    13.932     0.482     0.009     0.001     0.000     0.000     0.001    12.038     0.009     0.000 .00000E+00 0.000E+00 0.000E+00 0.000E+00 0.000E+00 0.000E+00
BIGSUB   1        0   12.49654E+03    71.695     3.000    17.540    13.757   121.831    32.081     0.000     4.305     5.940     0.000     0.000     0.000     0.000     0.000     0.000     1.635     0.022     0.004 .00000E+00 0.000E+00 0.000E+00 0.000E+00 0.000E+00 0.000E+00
BIGSUB   2        0   12.43327E+03    71.673     3.000    16.725    13.799   131.101    17.697     0.588     3.941     7.430     0.048     0.104     0.013     0.000     0.000     0.019     2.775     0.050     0.001 .00000E+00 0.000E+00 0.000E+00 0.000E+00 0.000E+00 0.000E+00
BIGSUB   3        0   12.32812E+03    71.702     6.200    18.109    15.229    51.033    27.133     1.205     6.963    20.713     0.092     0.278     0.034     0.000     0.000     0.044    12.314     0.238     0.001 .00000E+00 0.000E+00 0.000E+00 0.000E+00 0.000E+00 0.000E+00
BIGSUB   4        0   12.83628E+03    71.707     6.200    17.500    15.242    74.866    16.083     0.749     3.293    17.217     0.057     0.215     0.026     0.000     0.000     0.030    13.061     0.362     0.001 .00000E+00 0.000E+00 0.000E+00 0.000E+00 0.000E+00 0.000E+00
BIGSUB   5        0   12.53492E+03    71.726     3.000    17.416    14.496    77.749    28.827     0.922     8.958    14.307     0.054     0.149     0.018     0.000     0.000     0.027     4.143     0.053     0.002 .00000E+00 0.000E+00 0.000E+00 0.000E+00 0.000E+00 0.000E+00
BIGSUB   6        0   12.28785E+03    97.737    10.200    17.663    14.069   193.488    45.258     0.872     2.887     4.993     0.492     0.632     0.077     0.000     0.000     0.103     1.073     0.017     0.003 .00000E+00 0.000E+00 0.000E+00 0.000E+00 0.000E+00 0.000E+00
BIGSUB   7        0   12.51917E+03    97.693     0.000    12.978    12.014   218.826    76.189     1.271    13.594    21.227     1.038     1.259     0.154     0.001     0.000     0.189     5.938     0.082     0.013 .00000E+00 0.000E+00 0.000E+00 0.000E+00 0.000E+00 0.000E+00
BIGSUB   8        0   12.73656E+03    71.702     6.200    17.488    15.666    43.333    18.081    12.806     4.372    27.580    10.344     3.907     0.478     0.007     0.002     0.665    10.236     0.188     0.000 .00000E+00 0.000E+00 0.000E+00 0.000E+00 0.000E+00 0.000E+00
BIGSUB   9        0   12.51556E+03    97.703     0.000     3.421     2.981    70.291    57.957     5.350    11.505    45.462     9.333     2.191     0.268     0.000     0.001     0.246    28.009     0.139     0.003 .00000E+00 0.000E+00 0.000E+00 0.000E+00 0.000E+00 0.000E+00
BIGSUB  10        0   12.53154E+03    97.735     0.000    13.206    10.564    53.709    57.843     5.318    12.595    41.316    10.688     4.244     0.519     0.001     0.001     0.527    22.783     0.149     0.003 .00000E+00 0.000E+00 0.000E+00 0.000E+00 0.000E+00 0.000E+00
BIGSUB  11        0   12.50741E+03    97.692     0.000    13.194    11.123    65.332    79.806     5.267    20.435    27.374     1.681     2.905     0.354     0.005     0.000     0.394     0.753     0.003     0.007 .00000E+00 0.000E+00 0.000E+00 0.000E+00 0.000E+00 0.000E+00
BIGSUB  12        0   12.46168E+03    97.666     0.000     3.303     3.211    72.745    52.798     5.369    11.051    47.444    11.293     0.178     0.022     0.000     0.000     0.018    30.439     0.118     0.002 .00000E+00 0.000E+00 0.000E+00 0.000E+00 0.000E+00 0.000E+00
BIGSUB  13        0   12.35104E+03    97.647     0.000     5.909     5.636    59.032    43.239    13.414     6.278    49.045    35.023     0.220     0.029     0.001     0.000     0.019    28.912     0.173     0.001 .00000E+00 0.000E+00 0.000E+00 0.000E+00 0.000E+00 0.000E+00
BIGSUB   1        0 2010.49654E+03   408.704     7.300   954.026   267.036   121.831    69.548     0.000    20.862    27.953     0.000     0.000     0.000     0.000     0.000     0.000     7.091     0.075     0.010 .00000E+00 0.000E+00 0.000E+00 0.000E+00 0.000E+00 0.000E+00
BIGSUB   2        0 2010.43327E+03   434.936     7.300   915.804   298.304   131.101    45.609     0.714    18.844    32.718     0.060     0.132     0.016     0.000     0.000     0.024    12.052     0.178     0.008 .00000E+00 0.000E+00 0.000E+00 0.000E+00 0.000E+00 0.000E+00
BIGSUB   3        0 2010.32812E+03   435.111    30.200   924.243   274.209    51.033    82.177     1.274    32.437    89.566     0.103     0.306     0.038     0.000     0.000     0.048    53.639     0.590     0.005 .00000E+00 0.000E+00 0.000E+00 0.000E+00 0.000E+00 0.000E+00
BIGSUB   4        0 2010.83628E+03   435.145    30.200   945.820   294.590    74.866    43.754     0.794    13.260    69.736     0.062     0.232     0.028     0.000     0.000     0.033    54.566     0.763     0.004 .00000E+00 0.000E+00 0.000E+00 0.000E+00 0.000E+00 0.000E+00
BIGSUB   5        0 2010.53492E+03   435.256     7.300   954.963   278.409    77.749    94.355     1.118    44.423    66.482     0.070     0.192     0.023     0.004     0.000     0.034    18.340     0.178     0.014 .00000E+00 0.000E+00 0.000E+00 0.000E+00 0.000E+00 0.000E+00
BIGSUB   6        0 2010.28785E+03   539.607    16.800   912.673   377.917   193.488    74.357     1.677     7.043    14.472     0.944     1.214     0.149     0.000     0.000     0.202     4.448     0.071     0.006 .00000E+00 0.000E+00 0.000E+00 0.000E+00 0.000E+00 0.000E+00
BIGSUB   7        0 2010.51917E+03   545.708    64.845   681.815   309.143   218.826   166.433     3.220    53.810    82.841     2.586     3.309     0.403     0.003     0.001     0.497    22.069     0.294     0.046 .00000E+00 0.000E+00 0.000E+00 0.000E+00 0.000E+00 0.000E+00
BIGSUB   8        0 2010.73656E+03   435.112    30.200   945.660   275.002    43.333    54.458    32.211    23.227   109.672    30.834    13.864     1.697     0.039     0.006     2.283    52.616     0.493     0.003 .00000E+00 0.000E+00 0.000E+00 0.000E+00 0.000E+00 0.000E+00
BIGSUB   9        0 2010.51556E+03   587.977   107.058   527.298   212.725    70.291   218.905    20.556   177.765   342.783    41.352    18.397     2.253     0.008     0.002     1.981   134.112     0.602     0.056 .00000E+00 0.000E+00 0.000E+00 0.000E+00 0.000E+00 0.000E+00
BIGSUB  10        0 2010.53154E+03   548.278    67.185   679.676   229.232    53.709   201.808    17.966   111.003   231.780    33.281    19.472     2.380     0.023     0.003     2.301    95.478     0.722     0.035 .00000E+00 0.000E+00 0.000E+00 0.000E+00 0.000E+00 0.000E+00
BIGSUB  11        0 2010.50741E+03   548.042    67.185   678.041   229.027    65.332   292.101    19.575   186.874   221.198     6.204    12.661     1.534     0.057     0.005     1.705     3.950     0.061     0.121 .00000E+00 0.000E+00 0.000E+00 0.000E+00 0.000E+00 0.000E+00
BIGSUB  12        0 2010.46168E+03   750.683   124.274   529.547   255.399    72.745   243.609    69.821   203.153   464.097   200.846    36.937     4.528     0.018     0.004     3.843   179.526     0.740     0.068 .00000E+00 0.000E+00 0.000E+00 0.000E+00 0.000E+00 0.000E+00
BIGSUB  13        0 2010.35104E+03   736.487    26.560   620.574   259.012    59.032   180.552   130.868   112.654   412.981   526.700    27.419     3.385     0.099     0.007     2.818   162.107     0.826     0.024 .00000E+00 0.000E+00 0.000E+00 0.000E+00 0.000E+00 0.000E+00
BIGSUB   1        0    1.49654E+03    21.099     0.000    28.604    18.001   119.939     4.624     0.000     7.812     8.573     0.000     0.000     0.000     0.000     0.000     0.000     0.760     0.009     0.005 .00000E+00 0.000E+00 0.000E+00 0.000E+00 0.000E+00 0.000E+00
BIGSUB   2        0    1.43327E+03    21.092     0.000    28.732    19.617   129.227     2.776     0.000     6.166     7.679     0.000     0.000     0.000     0.000     0.000     0.000     1.288     0.031     0.003 .00000E+00 0.000E+00 0.000E+00 0.000E+00 0.000E+00 0.000E+00
BIGSUB   3        0    1.32812E+03    21.101     0.600    29.454    19.676    46.852     3.481     0.000    12.824    18.072     0.000     0.000     0.000     0.000     0.000     0.000     4.874     0.133     0.001 .00000E+00 0.000E+00 0.000E+00 0.000E+00 0.000E+00 0.000E+00
BIGSUB   4        0    1.83628E+03    21.102     0.600    28.600    20.673    71.074     1.941     0.003     7.156    12.700     0.000     0.001     0.000     0.000     0.000     0.000     5.341     0.196     0.002 .00000E+00 0.000E+00 0.000E+00 0.000E+00 0.000E+00 0.000E+00
BIGSUB   5        0    1.53492E+03    21.108     0.000    28.462    19.126    74.313     4.543     0.005    14.157    16.526     0.000     0.001     0.000     0.000     0.000     0.000     1.929     0.038     0.004 .00000E+00 0.000E+00 0.000E+00 0.000E+00 0.000E+00 0.000E+00
BIGSUB   6        0    1.28785E+03    39.415     0.000    26.389    20.130   195.831    16.461     0.001    12.214    13.389     0.000     0.001     0.000     0.000     0.000     0.000     0.755     0.013     0.017 .00000E+00 0.000E+00 0.000E+00 0.000E+00 0.000E+00 0.000E+00
BIGSUB   7        0    1.51917E+03    39.397     0.000    20.354    16.972   216.579    22.454     0.000    32.198    36.430     0.000     0.000     0.000     0.000     0.000     0.000     3.388     0.044     0.033 .00000E+00 0.000E+00 0.000E+00 0.000E+00 0.000E+00 0.000E+00
BIGSUB   8        0    1.73656E+03    21.101     0.600    28.579    19.938    38.892     2.798     0.537     6.084    10.164     0.929     0.327     0.040     0.003     0.000     0.049     3.285     0.030     0.001 .00000E+00 0.000E+00 0.000E+00 0.000E+00 0.000E+00 0.000E+00
BIGSUB   9        0    1.51556E+03    39.401     0.000     9.298     6.731    69.498    22.142     0.082    23.068    36.477     0.073     0.046     0.006     0.000     0.000     0.005    12.426     0.057     0.006 .00000E+00 0.000E+00 0.000E+00 0.000E+00 0.000E+00 0.000E+00
BIGSUB  10        0    1.53154E+03    39.414     0.000    19.437    13.121    52.348    19.352     0.054    23.463    33.501     0.051     0.031     0.004     0.000     0.000     0.004     9.065     0.049     0.007 .00000E+00 0.000E+00 0.000E+00 0.000E+00 0.000E+00 0.000E+00
BIGSUB  11        0    1.50741E+03    39.397     0.000    19.392    12.664    64.074    27.563     0.163    34.806    36.907     0.008     0.063     0.008     0.002     0.000     0.008     0.604     0.005     0.011 .00000E+00 0.000E+00 0.000E+00 0.000E+00 0.000E+00 0.000E+00
BIGSUB  12        0    1.46168E+03    39.386     0.000     9.144     7.629    71.567    20.554     0.100    24.458    38.838     0.113     0.033     0.004     0.000     0.000     0.003    13.452     0.053     0.004 .00000E+00 0.000E+00 0.000E+00 0.000E+00 0.000E+00 0.000E+00
BIGSUB  13        0    1.35104E+03    39.378     0.000    13.176    10.272    57.162    17.296     1.683    15.314    30.676     1.526     0.462     0.057     0.003     0.000     0.046    13.024     0.077     0.003 .00000E+00 0.000E+00 0.000E+00 0.000E+00 0.000E+00 0.000E+00
BIGSUB   1        0    2.49654E+03    29.598     0.000    38.483    19.900   122.336     6.764     0.000     7.649     8.186     0.000     0.000     0.000     0.000     0.000     0.000     0.537     0.006     0.003 .00000E+00 0.000E+00 0.000E+00 0.000E+00 0.000E+00 0.000E+00
BIGSUB   2        0    2.43327E+03    29.589     0.000    36.859    21.522   132.464     3.989     0.007     4.404     5.484     0.000     0.001     0.000     0.000     0.000     0.000     0.837     0.009     0.001 .00000E+00 0.000E+00 0.000E+00 0.000E+00 0.000E+00 0.000E+00
BIGSUB   3        0    2.32812E+03    29.601     2.100    36.481    20.610    47.399     5.207     0.000     9.281    13.131     0.000     0.000     0.000     0.000     0.000     0.000     3.479     0.025     0.001 .00000E+00 0.000E+00 0.000E+00 0.000E+00 0.000E+00 0.000E+00
BIGSUB   4        0    2.83628E+03    29.603     2.100    36.957    22.763    71.878     2.742     0.000     5.248     8.997     0.000     0.000     0.000     0.000     0.000     0.000     3.546     0.035     0.001 .00000E+00 0.000E+00 0.000E+00 0.000E+00 0.000E+00 0.000E+00
BIGSUB   5        0    2.53492E+03    29.611     0.000    38.422    21.363    74.751     6.551     0.010    10.154    11.838     0.000     0.001     0.000     0.000     0.000     0.000     1.243     0.010     0.002 .00000E+00 0.000E+00 0.000E+00 0.000E+00 0.000E+00 0.000E+00
BIGSUB   6        0    2.28785E+03    27.110     0.000    40.863    22.938   191.900     7.827     0.000    13.138    14.027     0.000     0.000     0.000     0.000     0.000     0.000     0.359     0.006     0.013 .00000E+00 0.000E+00 0.000E+00 0.000E+00 0.000E+00 0.000E+00
BIGSUB   7        0    2.51917E+03    27.098     0.000    30.757    19.725   212.827     9.899     0.000    27.561    29.899     0.000     0.000     0.000     0.000     0.000     0.000     1.389     0.019     0.019 .00000E+00 0.000E+00 0.000E+00 0.000E+00 0.000E+00 0.000E+00
BIGSUB   8        0    2.73656E+03    29.601     2.100    36.941    20.976    38.454     3.519     2.532     4.736    10.804     1.207     0.955     0.117     0.015     0.001     0.146     3.280     0.023     0.001 .00000E+00 0.000E+00 0.000E+00 0.000E+00 0.000E+00 0.000E+00
BIGSUB   9        0    2.51556E+03    27.101     0.000    19.698    10.734    67.547    11.428     0.272    22.842    30.709     0.369     0.205     0.025     0.000     0.000     0.022     6.651     0.028     0.004 .00000E+00 0.000E+00 0.000E+00 0.000E+00 0.000E+00 0.000E+00
BIGSUB  10        0    2.53154E+03    27.110     0.000    31.450    14.761    49.718     9.940     0.231    22.388    28.387     0.323     0.187     0.023     0.000     0.000     0.022     4.829     0.022     0.004 .00000E+00 0.000E+00 0.000E+00 0.000E+00 0.000E+00 0.000E+00
BIGSUB  11        0    2.50741E+03    27.098     0.000    31.380    14.198    61.671    14.826     0.260    32.408    34.326     0.060     0.129     0.016     0.002     0.000     0.017     0.307     0.004     0.007 .00000E+00 0.000E+00 0.000E+00 0.000E+00 0.000E+00 0.000E+00
BIGSUB  12        0    2.46168E+03    27.091     0.000    19.723    12.692    68.977     9.719     0.276    21.824    29.993     0.425     0.133     0.016     0.000     0.000     0.014     7.034     0.026     0.003 .00000E+00 0.000E+00 0.000E+00 0.000E+00 0.000E+00 0.000E+00
BIGSUB  13        0    2.35104E+03    27.085    10.200    23.514    13.538    54.790     4.719     6.420    16.023    27.956    19.672     4.463     0.555     0.019     0.000     0.454     4.826     0.018     0.002 .00000E+00 0.000E+00 0.000E+00 0.000E+00 0.000E+00 0.000E+00
BIGSUB   1        0    3.49654E+03    46.497     0.000    55.140    37.535   125.480     5.234     0.000     8.143     8.667     0.000     0.000     0.000     0.000     0.000     0.000     0.524     0.004     0.003 .00000E+00 0.000E+00 0.000E+00 0.000E+00 0.000E+00 0.000E+00
BIGSUB   2        0    3.43327E+03    46.482     0.000    53.303    39.158   136.677     2.263     0.000     3.612     4.642     0.000     0.000     0.000     0.000     0.000     0.000     0.770     0.008     0.001 .00000E+00 0.000E+00 0.000E+00 0.000E+00 0.000E+00 0.000E+00
BIGSUB   3        0    3.32812E+03    46.501     8.000    47.869    34.516    49.720     5.201     0.000     7.530    11.793     0.000     0.000     0.000     0.000     0.000     0.000     3.864     0.008     0.000 .00000E+00 0.000E+00 0.000E+00 0.000E+00 0.000E+00 0.000E+00
BIGSUB   4        0    3.83628E+03    46.505     8.000    48.735    36.681    74.834     2.418     0.000     4.124     8.220     0.000     0.000     0.000     0.000     0.000     0.000     3.878     0.009     0.000 .00000E+00 0.000E+00 0.000E+00 0.000E+00 0.000E+00 0.000E+00
BIGSUB   5        0    3.53492E+03    46.517     0.000    55.231    38.842    76.955     4.198     0.000     8.278     9.892     0.000     0.000     0.000     0.000     0.000     0.000     1.150     0.004     0.001 .00000E+00 0.000E+00 0.000E+00 0.000E+00 0.000E+00 0.000E+00
BIGSUB   6        0    3.28785E+03    81.131     0.000    51.820    41.508   202.306    28.299     0.066    13.141    14.522     0.015     0.023     0.003     0.000     0.000     0.004     0.655     0.032     0.009 .00000E+00 0.000E+00 0.000E+00 0.000E+00 0.000E+00 0.000E+00
BIGSUB   7        0    3.51917E+03    81.094     7.400    40.963    34.557   219.320    36.002     0.087    25.006    29.373     0.081     0.096     0.012     0.000     0.000     0.015     3.185     0.040     0.013 .00000E+00 0.000E+00 0.000E+00 0.000E+00 0.000E+00 0.000E+00
BIGSUB   8        0    3.73656E+03    46.501     8.000    48.724    35.946    40.721     2.861     0.585     3.965     9.319     0.529     0.191     0.023     0.004     0.000     0.030     4.496     0.020     0.000 .00000E+00 0.000E+00 0.000E+00 0.000E+00 0.000E+00 0.000E+00
BIGSUB   9        0    3.51556E+03    81.103     7.400    34.571    22.740    69.811    34.707     1.664    23.884    45.102     2.803     1.418     0.174     0.002     0.000     0.151    18.474     0.074     0.004 .00000E+00 0.000E+00 0.000E+00 0.000E+00 0.000E+00 0.000E+00
BIGSUB  10        0    3.53154E+03    81.129     7.400    41.802    28.158    53.698    32.610     1.388    22.669    39.231     1.815     1.010     0.124     0.007     0.000     0.118    14.122     0.080     0.004 .00000E+00 0.000E+00 0.000E+00 0.000E+00 0.000E+00 0.000E+00
BIGSUB  11        0    3.50741E+03    81.094     7.400    41.680    27.216    65.482    47.768     1.610    32.814    36.424     0.303     0.692     0.086     0.021     0.001     0.092     0.484     0.007     0.008 .00000E+00 0.000E+00 0.000E+00 0.000E+00 0.000E+00 0.000E+00
BIGSUB  12        0    3.46168E+03    84.315     7.696    34.850    26.898    72.109    30.688     1.961    21.086    44.429     3.901     1.113     0.139     0.002     0.000     0.115    20.405     0.070     0.002 .00000E+00 0.000E+00 0.000E+00 0.000E+00 0.000E+00 0.000E+00
BIGSUB  13        0    3.35104E+03    84.298     0.000    37.560    28.100    58.533    24.509     7.399    16.048    43.568    13.117     2.048     0.256     0.013     0.000     0.213    19.359     0.093     0.002 .00000E+00 0.000E+00 0.000E+00 0.000E+00 0.000E+00 0.000E+00
BIGSUB   1        0    4.49654E+03     5.330     0.000    81.433    25.339   105.463     0.000     0.000     5.621     5.758     0.000     0.000     0.000     0.000     0.000     0.000     0.137     0.003     0.001 .00000E+00 0.000E+00 0.000E+00 0.000E+00 0.000E+00 0.000E+00
BIGSUB   2        0    4.43327E+03    53.280     0.000    77.715    49.209   135.215     4.327     0.000     2.650     4.030     0.000     0.000     0.000     0.000     0.000     0.000     1.148     0.012     0.000 .00000E+00 0.000E+00 0.000E+00 0.000E+00 0.000E+00 0.000E+00
BIGSUB   3        0    4.32812E+03    53.301     3.800    80.551    43.853    47.379     6.278     0.000     5.844    11.701     0.000     0.000     0.000     0.000     0.000     0.000     5.497     0.016     0.000 .00000E+00 0.000E+00 0.000E+00 0.000E+00 0.000E+00 0.000E+00
BIGSUB   4        0    4.83628E+03    53.305     3.800    82.913    48.373    71.274     2.974     0.000     2.805     8.472     0.000     0.000     0.000     0.000     0.000     0.000     5.473     0.018     0.000 .00000E+00 0.000E+00 0.000E+00 0.000E+00 0.000E+00 0.000E+00
BIGSUB   5        0    4.53492E+03    53.319     0.000    81.692    44.699    75.873     7.877     0.000     6.031     8.162     0.000     0.000     0.000     0.000     0.000     0.000     1.721     0.006     0.001 .00000E+00 0.000E+00 0.000E+00 0.000E+00 0.000E+00 0.000E+00
BIGSUB   6        0    4.28785E+03    45.817     0.000    71.031    50.671   190.767     6.363     0.000    13.162    14.391     0.000     0.000     0.000     0.000     0.000     0.000     0.511     0.052     0.010 .00000E+00 0.000E+00 0.000E+00 0.000E+00 0.000E+00 0.000E+00
BIGSUB   7        0    4.51917E+03    45.797     1.300    56.352    40.823   212.041    10.693     0.000    24.140    27.581     0.000     0.000     0.000     0.000     0.000     0.000     2.327     0.027     0.013 .00000E+00 0.000E+00 0.000E+00 0.000E+00 0.000E+00 0.000E+00
BIGSUB   8        0    4.73656E+03    53.301     3.800    82.905    45.812    35.467     3.984     2.974     2.387    11.257     4.181     1.351     0.166     0.008     0.001     0.216     5.654     0.021     0.000 .00000E+00 0.000E+00 0.000E+00 0.000E+00 0.000E+00 0.000E+00
BIGSUB   9        0    4.51556E+03    45.802     1.300    56.760    30.133    64.168    12.396     0.036    23.481    34.650     0.045     0.026     0.003     0.000     0.000     0.003    10.033     0.030     0.004 .00000E+00 0.000E+00 0.000E+00 0.000E+00 0.000E+00 0.000E+00
BIGSUB  10        0    4.53154E+03    45.816     1.300    57.625    31.042    49.636    12.126     0.024    22.128    30.672     0.030     0.016     0.002     0.000     0.000     0.002     7.462     0.037     0.004 .00000E+00 0.000E+00 0.000E+00 0.000E+00 0.000E+00 0.000E+00
BIGSUB  11        0    4.50741E+03    45.796     1.300    57.423    30.224    61.963    18.754     0.048    32.283    34.352     0.005     0.017     0.002     0.000     0.000     0.002     0.487     0.007     0.011 .00000E+00 0.000E+00 0.000E+00 0.000E+00 0.000E+00 0.000E+00
BIGSUB  12        0    4.46168E+03    86.990     2.470    57.410    37.656    68.103    29.339     2.349    24.241    50.258     4.429     1.219     0.152     0.001     0.000     0.128    22.630     0.068     0.004 .00000E+00 0.000E+00 0.000E+00 0.000E+00 0.000E+00 0.000E+00
BIGSUB  13        0    4.35104E+03    86.972     0.000    61.676    36.861    54.723    23.988     9.290    17.592    49.236    35.456     3.602     0.449     0.009     0.001     0.382    21.547     0.095     0.003 .00000E+00 0.000E+00 0.000E+00 0.000E+00 0.000E+00 0.000E+00
BIGSUB   1        0    5.49654E+03    85.495     0.000   116.561    45.804   123.424    20.041     0.000     3.329     4.748     0.000     0.000     0.000     0.000     0.000     0.000     1.419     0.011     0.001 .00000E+00 0.000E+00 0.000E+00 0.000E+00 0.000E+00 0.000E+00
BIGSUB   2        0    5.43327E+03    85.468     0.000   112.155    57.942   144.240    11.909     3.851     3.130     9.820     0.999     1.517     0.186     0.001     0.001     0.285     2.593     0.031     0.001 .00000E+00 0.000E+00 0.000E+00 0.000E+00 0.000E+00 0.000E+00
BIGSUB   3        0    5.32812E+03    85.502     2.300   107.891    44.722    54.716    17.425     3.965     6.918    22.885     0.749     1.896     0.232     0.000     0.001     0.299    11.623     0.127     0.000 .00000E+00 0.000E+00 0.000E+00 0.000E+00 0.000E+00 0.000E+00
BIGSUB   4        0    5.83628E+03    85.509     2.300   112.050    50.235    82.356     8.942     2.734     3.331    18.384     0.409     1.213     0.148     0.000     0.001     0.184    12.118     0.157     0.000 .00000E+00 0.000E+00 0.000E+00 0.000E+00 0.000E+00 0.000E+00
BIGSUB   5        0    5.53492E+03    85.531     0.000   116.786    47.015    84.112    21.623     4.505     7.677    16.515     1.157     1.844     0.226     0.000     0.001     0.348     3.899     0.031     0.001 .00000E+00 0.000E+00 0.000E+00 0.000E+00 0.000E+00 0.000E+00
BIGSUB   6        0    5.28785E+03   104.178     0.000   110.861    74.649   191.154    26.640     1.456    11.572    14.611     0.395     0.570     0.070     0.000     0.000     0.094     0.843     0.010     0.007 .00000E+00 0.000E+00 0.000E+00 0.000E+00 0.000E+00 0.000E+00
BIGSUB   7        0    5.51917E+03   100.995     0.000    91.256    57.474   207.975    40.478     2.188    21.458    29.126     2.744     3.132     0.382     0.002     0.001     0.480     4.348     0.045     0.010 .00000E+00 0.000E+00 0.000E+00 0.000E+00 0.000E+00 0.000E+00
BIGSUB   8        0    5.73656E+03    85.502     2.300   112.042    42.650    36.487    11.097    22.498     2.902    33.650    39.169     8.413     1.032     0.025     0.005     1.531     8.001     0.015     0.000 .00000E+00 0.000E+00 0.000E+00 0.000E+00 0.000E+00 0.000E+00
BIGSUB   9        0    5.51556E+03   106.072     0.000    76.989    38.306    62.929    36.261     9.858    22.086    55.682    19.640     7.797     0.957     0.003     0.001     0.843    22.620     0.065     0.003 .00000E+00 0.000E+00 0.000E+00 0.000E+00 0.000E+00 0.000E+00
BIGSUB  10        0    5.53154E+03   103.803     0.000    90.381    41.701    45.931    38.504     9.245    21.431    49.591    15.213     7.408     0.908     0.009     0.002     0.906    17.831     0.113     0.004 .00000E+00 0.000E+00 0.000E+00 0.000E+00 0.000E+00 0.000E+00
BIGSUB  11        0    5.50741E+03   103.759     0.000    90.183    40.465    57.848    56.340    10.257    31.613    44.059     3.011     6.434     0.795     0.021     0.004     0.917     0.605     0.008     0.012 .00000E+00 0.000E+00 0.000E+00 0.000E+00 0.000E+00 0.000E+00
BIGSUB  12        0    5.46168E+03   265.081     0.000    77.759    49.963    63.421    83.587    81.238    32.134   169.335   142.713    14.491     1.812     0.005     0.004     1.552    54.712     0.136     0.006 .00000E+00 0.000E+00 0.000E+00 0.000E+00 0.000E+00 0.000E+00
BIGSUB  13        0    5.35104E+03   249.353     0.000    82.419    48.228    51.945    47.789   117.586    22.084   179.262   395.361     9.912     1.229     0.027     0.004     1.040    38.628     0.149     0.004 .00000E+00 0.000E+00 0.000E+00 0.000E+00 0.000E+00 0.000E+00
BIGSUB   1        0    6.49654E+03    54.219     0.800   130.278    55.359   103.629    17.488     0.000    13.281    14.656     0.000     0.000     0.000     0.000     0.000     0.000     1.376     0.010     0.008 .00000E+00 0.000E+00 0.000E+00 0.000E+00 0.000E+00 0.000E+00
BIGSUB   2        0    6.43327E+03    55.535     0.800   123.032    59.975   124.934    11.342     1.581     5.926    10.076     0.522     0.779     0.095     0.000     0.000     0.144     2.246     0.018     0.002 .00000E+00 0.000E+00 0.000E+00 0.000E+00 0.000E+00 0.000E+00
BIGSUB   3        0    6.32812E+03    55.558     0.000   124.784    49.690    37.492    12.383     2.130    12.786    25.088     0.259     0.733     0.090     0.000     0.001     0.115     9.702     0.091     0.001 .00000E+00 0.000E+00 0.000E+00 0.000E+00 0.000E+00 0.000E+00
BIGSUB   4        0    6.83628E+03    53.370     0.000   130.300    55.891    62.692     6.816     1.412     6.596    18.290     0.137     0.485     0.059     0.000     0.000     0.071    10.035     0.118     0.001 .00000E+00 0.000E+00 0.000E+00 0.000E+00 0.000E+00 0.000E+00
BIGSUB   5        0    6.53492E+03    54.242     0.800   130.534    49.238    68.126    15.943     2.190    13.773    19.860     0.643     1.059     0.130     0.001     0.001     0.196     3.340     0.023     0.002 .00000E+00 0.000E+00 0.000E+00 0.000E+00 0.000E+00 0.000E+00
BIGSUB   6        0    6.28785E+03     4.831     0.000   162.412    67.408   128.588     0.000     0.000    13.915    14.926     0.000     0.000     0.000     0.000     0.000     0.000     0.253     0.004     0.009 .00000E+00 0.000E+00 0.000E+00 0.000E+00 0.000E+00 0.000E+00
BIGSUB   7        0    6.51917E+03     3.327     0.000   222.093    74.432   136.860     0.000     0.000    23.153    25.031     0.000     0.000     0.000     0.000     0.000     0.000     0.730     0.009     0.012 .00000E+00 0.000E+00 0.000E+00 0.000E+00 0.000E+00 0.000E+00
BIGSUB   8        0    6.73656E+03    53.366     0.000   130.291    49.428    16.148     5.740    13.483     6.517    26.102    17.501     2.896     0.355     0.008     0.003     0.519     5.807     0.025     0.001 .00000E+00 0.000E+00 0.000E+00 0.000E+00 0.000E+00 0.000E+00
BIGSUB   9        0    6.51556E+03    35.461     0.000   117.385    46.132    45.136     1.637     0.000    22.053    28.960     0.000     0.000     0.000     0.000     0.000     0.000     5.794     0.004     0.003 .00000E+00 0.000E+00 0.000E+00 0.000E+00 0.000E+00 0.000E+00
BIGSUB  10        0    6.53154E+03    15.859     0.000   211.668    38.767    21.292     0.200     0.000    19.855    22.700     0.000     0.000     0.000     0.000     0.000     0.000     1.748     0.001     0.005 .00000E+00 0.000E+00 0.000E+00 0.000E+00 0.000E+00 0.000E+00
BIGSUB  11        0    6.50741E+03    15.852     0.000   211.693    36.824    36.821     0.000     0.002    32.442    34.356     0.000     0.001     0.000     0.000     0.000     0.000     0.307     0.004     0.015 .00000E+00 0.000E+00 0.000E+00 0.000E+00 0.000E+00 0.000E+00
BIGSUB  12        0    6.46168E+03    38.283     0.000   118.197    56.756    38.441     0.232     0.003    41.820    50.191     0.000     0.000     0.000     0.000     0.000     0.000     6.837     0.002     0.008 .00000E+00 0.000E+00 0.000E+00 0.000E+00 0.000E+00 0.000E+00
BIGSUB  13        0    6.35104E+03    39.240     0.000    97.802    39.292    43.301     1.401     0.140    25.166    33.751     0.382     0.001     0.000     0.000     0.000     0.000     7.358     0.006     0.004 .00000E+00 0.000E+00 0.000E+00 0.000E+00 0.000E+00 0.000E+00
BIGSUB   1        0    7.49654E+03     6.100     0.000   162.702    25.696    83.985     0.000     0.000    11.448    11.553     0.000     0.000     0.000     0.000     0.000     0.000     0.105     0.001     0.004 .00000E+00 0.000E+00 0.000E+00 0.000E+00 0.000E+00 0.000E+00
BIGSUB   2        0    7.43327E+03     6.098     0.000   155.931    31.162    99.787     0.000     0.000     4.979     5.493     0.000     0.000     0.000     0.000     0.000     0.000     0.160     0.001     0.001 .00000E+00 0.000E+00 0.000E+00 0.000E+00 0.000E+00 0.000E+00
BIGSUB   3        0    7.32812E+03     6.100     0.000   159.531    20.587    22.607     0.000     0.000     7.693     8.682     0.000     0.000     0.000     0.000     0.000     0.000     0.495     0.001     0.000 .00000E+00 0.000E+00 0.000E+00 0.000E+00 0.000E+00 0.000E+00
BIGSUB   4        0    7.83628E+03     6.101     0.000   163.984    24.253    44.104     0.000     0.000     3.671     4.461     0.000     0.000     0.000     0.000     0.000     0.000     0.531     0.002     0.000 .00000E+00 0.000E+00 0.000E+00 0.000E+00 0.000E+00 0.000E+00
BIGSUB   5        0    7.53492E+03     6.102     0.000   162.990    19.801    54.316     0.000     0.000     8.850     9.670     0.000     0.000     0.000     0.000     0.000     0.000     0.226     0.001     0.001 .00000E+00 0.000E+00 0.000E+00 0.000E+00 0.000E+00 0.000E+00
BIGSUB   6        0    7.28785E+03     0.000     0.000   171.226    33.290    95.310     0.000     0.000     3.786     4.542     0.000     0.000     0.000     0.000     0.000     0.000     0.059     0.001     0.001 .00000E+00 0.000E+00 0.000E+00 0.000E+00 0.000E+00 0.000E+00
BIGSUB   7        0    7.51917E+03     0.000     0.000   287.706    89.792    47.062     0.000     0.000     5.984     7.093     0.000     0.000     0.000     0.000     0.000     0.000     0.061     0.001     0.002 .00000E+00 0.000E+00 0.000E+00 0.000E+00 0.000E+00 0.000E+00
BIGSUB   8        0    7.73656E+03     6.100     0.000   163.972    15.310     6.421     0.000     0.000     4.593     5.471     0.000     0.000     0.000     0.000     0.000     0.000     0.577     0.004     0.000 .00000E+00 0.000E+00 0.000E+00 0.000E+00 0.000E+00 0.000E+00
BIGSUB   9        0    7.51556E+03     0.000     0.000   162.297    34.689    10.449     0.000     0.000    11.937    13.051     0.000     0.000     0.000     0.000     0.000     0.000     0.097     0.000     0.001 .00000E+00 0.000E+00 0.000E+00 0.000E+00 0.000E+00 0.000E+00
BIGSUB  10        0    7.53154E+03     0.000     0.000   271.250    18.150     3.149     0.000     0.000     6.550     7.668     0.000     0.000     0.000     0.000     0.000     0.000     0.118     0.000     0.001 .00000E+00 0.000E+00 0.000E+00 0.000E+00 0.000E+00 0.000E+00
BIGSUB  11        0    7.50741E+03     0.000     0.000   271.570    25.397    11.423     0.000     0.000    16.520    18.080     0.000     0.000     0.000     0.000     0.000     0.000     0.100     0.002     0.004 .00000E+00 0.000E+00 0.000E+00 0.000E+00 0.000E+00 0.000E+00
BIGSUB  12        0    7.46168E+03     0.000     0.000   162.892    31.238     7.192     0.000     0.000    18.501    20.080     0.000     0.000     0.000     0.000     0.000     0.000     0.086     0.000     0.002 .00000E+00 0.000E+00 0.000E+00 0.000E+00 0.000E+00 0.000E+00
BIGSUB  13        0    7.35104E+03     0.000     0.000   114.168    23.812    19.476     0.000     0.000    15.606    16.714     0.000     0.000     0.000     0.000     0.000     0.000     0.081     0.000     0.001 .00000E+00 0.000E+00 0.000E+00 0.000E+00 0.000E+00 0.000E+00
BIGSUB   1        0    8.49654E+03     0.000     0.000   150.810     8.183    75.801     0.000     0.000     2.074     2.089     0.000     0.000     0.000     0.000     0.000     0.000     0.015     0.000     0.000 .00000E+00 0.000E+00 0.000E+00 0.000E+00 0.000E+00 0.000E+00
BIGSUB   2        0    8.43327E+03     0.000     0.000   144.346     9.596    90.187     0.000     0.000     0.351     0.675     0.000     0.000     0.000     0.000     0.000     0.000     0.024     0.000     0.000 .00000E+00 0.000E+00 0.000E+00 0.000E+00 0.000E+00 0.000E+00
BIGSUB   3        0    8.32812E+03     0.000     0.000   149.223     6.569    16.038     0.000     0.000     0.529     0.958     0.000     0.000     0.000     0.000     0.000     0.000     0.015     0.000     0.000 .00000E+00 0.000E+00 0.000E+00 0.000E+00 0.000E+00 0.000E+00
BIGSUB   4        0    8.83628E+03     0.000     0.000   154.877    10.398    33.707     0.000     0.000     0.188     0.425     0.000     0.000     0.000     0.000     0.000     0.000     0.020     0.000     0.000 .00000E+00 0.000E+00 0.000E+00 0.000E+00 0.000E+00 0.000E+00
BIGSUB   5        0    8.53492E+03     0.000     0.000   150.933     7.657    46.662     0.000     0.000     0.755     1.281     0.000     0.000     0.000     0.000     0.000     0.000     0.025     0.000     0.000 .00000E+00 0.000E+00 0.000E+00 0.000E+00 0.000E+00 0.000E+00
BIGSUB   6        0    8.28785E+03     2.863     0.000   147.151    11.748    86.420     0.000     0.000     0.148     0.730     0.000     0.000     0.000     0.000     0.000     0.000     0.025     0.000     0.000 .00000E+00 0.000E+00 0.000E+00 0.000E+00 0.000E+00 0.000E+00
BIGSUB   7        0    8.51917E+03     2.312     0.000   251.109    28.997    20.362     0.000     0.000     0.001     0.857     0.000     0.000     0.000     0.000     0.000     0.000     0.022     0.000     0.000 .00000E+00 0.000E+00 0.000E+00 0.000E+00 0.000E+00 0.000E+00
BIGSUB   8        0    8.73656E+03     0.000     0.000   154.862     4.143     2.278     0.000     0.000     0.221     0.478     0.000     0.000     0.000     0.000     0.000     0.000     0.009     0.000     0.000 .00000E+00 0.000E+00 0.000E+00 0.000E+00 0.000E+00 0.000E+00
BIGSUB   9        0    8.51556E+03    11.510     0.000   133.573    10.567     9.472     0.051     0.000     0.690     3.305     0.000     0.000     0.000     0.000     0.000     0.000     1.803     0.000     0.000 .00000E+00 0.000E+00 0.000E+00 0.000E+00 0.000E+00 0.000E+00
BIGSUB  10        0    8.53154E+03     2.702     0.000   239.575     4.320     1.340     0.000     0.000     0.000     0.982     0.000     0.000     0.000     0.000     0.000     0.000     0.186     0.002     0.000 .00000E+00 0.000E+00 0.000E+00 0.000E+00 0.000E+00 0.000E+00
BIGSUB  11        0    8.50741E+03     2.701     0.000   239.960     9.110     5.005     0.000     0.000     0.000     1.193     0.000     0.000     0.000     0.000     0.000     0.000     0.032     0.001     0.000 .00000E+00 0.000E+00 0.000E+00 0.000E+00 0.000E+00 0.000E+00
BIGSUB  12        0    8.46168E+03    11.506     0.000   133.889     8.486     8.196     0.000     0.000     0.729     3.926     0.000     0.000     0.000     0.000     0.000     0.000     1.977     0.000     0.000 .00000E+00 0.000E+00 0.000E+00 0.000E+00 0.000E+00 0.000E+00
BIGSUB  13        0    8.35104E+03     5.246     0.000    92.234    12.571    11.405     0.000     0.000     4.560     6.131     0.000     0.000     0.000     0.000     0.000     0.000     0.742     0.006     0.000 .00000E+00 0.000E+00 0.000E+00 0.000E+00 0.000E+00 0.000E+00
BIGSUB   1        0    9.49654E+03     1.300     0.000   109.695     5.738    71.363     0.000     0.000     0.002     0.006     0.000     0.000     0.000     0.000     0.000     0.000     0.004     0.000     0.000 .00000E+00 0.000E+00 0.000E+00 0.000E+00 0.000E+00 0.000E+00
BIGSUB   2        0    9.43327E+03     1.300     0.000   104.999     5.279    86.206     0.000     0.000     0.000     0.235     0.000     0.000     0.000     0.000     0.000     0.000     0.007     0.000     0.000 .00000E+00 0.000E+00 0.000E+00 0.000E+00 0.000E+00 0.000E+00
BIGSUB   3        0    9.32812E+03     1.300     0.300   107.937     3.636    13.702     0.000     0.000     0.000     0.315     0.000     0.000     0.000     0.000     0.000     0.000     0.002     0.000     0.000 .00000E+00 0.000E+00 0.000E+00 0.000E+00 0.000E+00 0.000E+00
BIGSUB   4        0    9.83628E+03     1.300     0.300   109.537     5.175    29.833     0.000     0.000     0.000     0.167     0.000     0.000     0.000     0.000     0.000     0.000     0.003     0.000     0.000 .00000E+00 0.000E+00 0.000E+00 0.000E+00 0.000E+00 0.000E+00
BIGSUB   5        0    9.53492E+03     1.300     0.000   109.692     4.171    43.792     0.000     0.000     0.000     0.384     0.000     0.000     0.000     0.000     0.000     0.000     0.005     0.000     0.000 .00000E+00 0.000E+00 0.000E+00 0.000E+00 0.000E+00 0.000E+00
BIGSUB   6        0    9.28785E+03    31.510     0.000    79.275    17.862    99.910     0.000     0.000     0.000     0.538     0.000     0.000     0.000     0.000     0.000     0.000     0.125     0.000     0.000 .00000E+00 0.000E+00 0.000E+00 0.000E+00 0.000E+00 0.000E+00
BIGSUB   7        0    9.51917E+03    12.748     0.000   150.767    12.459    20.487     0.000     0.000     0.000     0.735     0.000     0.000     0.000     0.000     0.000     0.000     0.118     0.001     0.000 .00000E+00 0.000E+00 0.000E+00 0.000E+00 0.000E+00 0.000E+00
BIGSUB   8        0    9.73656E+03     1.300     0.300   109.519     2.589     0.978     0.000     0.000     0.000     0.199     0.000     0.000     0.000     0.000     0.000     0.000     0.011     0.000     0.000 .00000E+00 0.000E+00 0.000E+00 0.000E+00 0.000E+00 0.000E+00
BIGSUB   9        0    9.51556E+03    63.062     0.000    64.074    31.703    25.865     4.016     0.026     0.273    11.596     0.003     0.009     0.001     0.000     0.000     0.001    10.687     0.001     0.000 .00000E+00 0.000E+00 0.000E+00 0.000E+00 0.000E+00 0.000E+00
BIGSUB  10        0    9.53154E+03    47.957     0.000   107.029    25.109    16.918     2.467     0.000     0.000     5.189     0.000     0.000     0.000     0.000     0.000     0.000     4.594     0.007     0.000 .00000E+00 0.000E+00 0.000E+00 0.000E+00 0.000E+00 0.000E+00
BIGSUB  11        0    9.50741E+03    47.937     0.000   107.054    28.953    23.816     0.000     0.000     0.000     0.976     0.000     0.000     0.000     0.000     0.000     0.000     0.116     0.001     0.000 .00000E+00 0.000E+00 0.000E+00 0.000E+00 0.000E+00 0.000E+00
BIGSUB  12        0    9.46168E+03    63.038     0.000    64.345    33.850    26.083     0.156     0.000     0.088    12.009     0.000     0.000     0.000     0.000     0.000     0.000    11.007     0.000     0.000 .00000E+00 0.000E+00 0.000E+00 0.000E+00 0.000E+00 0.000E+00
BIGSUB  13        0    9.35104E+03    51.137     0.000    50.398    19.973    31.839     0.855     0.067     0.144    10.409     0.027     0.002     0.000     0.000     0.000     0.000     9.577     0.012     0.000 .00000E+00 0.000E+00 0.000E+00 0.000E+00 0.000E+00 0.000E+00
BIGSUB   1        0   10.49654E+03    25.998     1.300    62.591    19.782    77.342     0.000     0.000     0.000     0.224     0.000     0.000     0.000     0.000     0.000     0.000     0.224     0.002     0.000 .00000E+00 0.000E+00 0.000E+00 0.000E+00 0.000E+00 0.000E+00
[...]
BIGSUB   7        0    9.51917E+03    16.299     1.300    78.269    20.027    85.071     0.000     0.000     0.000     0.485     0.000     0.000     0.000     0.000     0.000     0.000     0.382     0.004     0.000 .00000E+00 0.000E+00 0.000E+00 0.000E+00 0.000E+00 0.000E+00
BIGSUB   8        0    9.73656E+03     4.100     4.100   110.634     4.191     3.211     0.000     0.000     0.000     0.353     0.000     0.000     0.000     0.000     0.000     0.000     0.323     0.045     0.000 .00000E+00 0.000E+00 0.000E+00 0.000E+00 0.000E+00 0.000E+00
BIGSUB   9        0    9.51556E+03    16.301     1.300    54.456    12.515    16.462     0.384     0.000     0.012     3.091     0.000     0.000     0.000     0.000     0.000     0.000     2.735     0.002     0.000 .00000E+00 0.000E+00 0.000E+00 0.000E+00 0.000E+00 0.000E+00
BIGSUB  10        0    9.53154E+03    16.306     1.300    76.264    13.853    11.099     0.557     0.000     0.000     1.980     0.000     0.000     0.000     0.000     0.000     0.000     1.705     0.005     0.000 .00000E+00 0.000E+00 0.000E+00 0.000E+00 0.000E+00 0.000E+00
BIGSUB  11        0    9.50741E+03    16.299     1.300    76.113    17.098    22.007     0.000     0.000     0.000     0.456     0.000     0.000     0.000     0.000     0.000     0.000     0.052     0.000     0.000 .00000E+00 0.000E+00 0.000E+00 0.000E+00 0.000E+00 0.000E+00
BIGSUB  12        0    9.46168E+03    16.294     1.300    54.903    12.453    12.132     0.000     0.000     0.000     3.263     0.000     0.000     0.000     0.000     0.000     0.000     2.876     0.001     0.000 .00000E+00 0.000E+00 0.000E+00 0.000E+00 0.000E+00 0.000E+00
BIGSUB  13        0    9.35104E+03    16.291     0.000    61.027    13.195    10.926     0.000     0.000     0.000     3.364     0.000     0.000     0.000     0.000     0.000     0.000     3.124     0.011     0.000 .00000E+00 0.000E+00 0.000E+00 0.000E+00 0.000E+00 0.000E+00
BIGSUB   1        0   10.49654E+03    13.599     0.000    65.136     9.867    60.170     0.000     0.000     0.000     0.050     0.000     0.000     0.000     0.000     0.000     0.000     0.050     0.002     0.000 .00000E+00 0.000E+00 0.000E+00 0.000E+00 0.000E+00 0.000E+00
BIGSUB   2        0   10.43327E+03    13.595     0.000    63.800     9.384    65.362     0.000     0.000     0.000     0.084     0.000     0.000     0.000     0.000     0.000     0.000     0.071     0.002     0.000 .00000E+00 0.000E+00 0.000E+00 0.000E+00 0.000E+00 0.000E+00
BIGSUB   3        0   10.32812E+03    13.600     4.587    60.278     6.918     7.936     0.000     0.000     0.000     0.262     0.000     0.000     0.000     0.000     0.000     0.000     0.240     0.010     0.000 .00000E+00 0.000E+00 0.000E+00 0.000E+00 0.000E+00 0.000E+00
BIGSUB   4        0   10.83628E+03    13.601     4.587    60.195     7.077    15.470     0.000     0.000     0.000     0.250     0.000     0.000     0.000     0.000     0.000     0.000     0.239     0.011     0.000 .00000E+00 0.000E+00 0.000E+00 0.000E+00 0.000E+00 0.000E+00
BIGSUB   5        0   10.53492E+03    13.605     0.000    64.975     9.032    34.646     0.000     0.000     0.000     0.140     0.000     0.000     0.000     0.000     0.000     0.000     0.110     0.003     0.000 .00000E+00 0.000E+00 0.000E+00 0.000E+00 0.000E+00 0.000E+00
BIGSUB   6        0   10.28785E+03    15.006     0.000    69.632    10.946    88.669     0.000     0.000     0.000     0.095     0.000     0.000     0.000     0.000     0.000     0.000     0.031     0.001     0.000 .00000E+00 0.000E+00 0.000E+00 0.000E+00 0.000E+00 0.000E+00
BIGSUB   7        0   10.51917E+03    14.999     0.000    51.435    12.722    87.118     0.000     0.000     0.000     0.187     0.000     0.000     0.000     0.000     0.000     0.000     0.109     0.000     0.000 .00000E+00 0.000E+00 0.000E+00 0.000E+00 0.000E+00 0.000E+00
BIGSUB   8        0   10.73656E+03    13.600     4.587    60.178     6.600     4.962     0.000     0.000     0.000     0.529     0.000     0.000     0.000     0.000     0.000     0.000     0.507     0.068     0.000 .00000E+00 0.000E+00 0.000E+00 0.000E+00 0.000E+00 0.000E+00
BIGSUB   9        0   10.51556E+03    15.001     0.000    28.081     6.475    22.799     0.191     0.000     0.013     1.740     0.000     0.000     0.000     0.000     0.000     0.000     1.461     0.001     0.000 .00000E+00 0.000E+00 0.000E+00 0.000E+00 0.000E+00 0.000E+00
BIGSUB  10        0   10.53154E+03    15.005     0.000    49.935     7.324    17.585     0.046     0.000     0.000     1.046     0.000     0.000     0.000     0.000     0.000     0.000     0.831     0.003     0.000 .00000E+00 0.000E+00 0.000E+00 0.000E+00 0.000E+00 0.000E+00
BIGSUB  11        0   10.50741E+03    14.999     0.000    49.876     7.304    29.660     0.000     0.000     0.000     0.332     0.000     0.000     0.000     0.000     0.000     0.000     0.022     0.000     0.000 .00000E+00 0.000E+00 0.000E+00 0.000E+00 0.000E+00 0.000E+00
BIGSUB  12        0   10.46168E+03    14.995     0.000    28.186     5.884    19.098     0.000     0.000     0.000     1.949     0.000     0.000     0.000     0.000     0.000     0.000     1.651     0.001     0.000 .00000E+00 0.000E+00 0.000E+00 0.000E+00 0.000E+00 0.000E+00
BIGSUB  13        0   10.35104E+03    14.992     0.000    31.777     6.327    17.282     0.000     0.000     0.000     1.956     0.000     0.000     0.000     0.000     0.000     0.000     1.772     0.005     0.000 .00000E+00 0.000E+00 0.000E+00 0.000E+00 0.000E+00 0.000E+00
BIGSUB   1        0   11.49654E+03    52.457     0.000    34.726    20.547    87.319     3.890     0.000     0.000     0.783     0.000     0.000     0.000     0.000     0.000     0.000     0.783     0.021     0.000 .00000E+00 0.000E+00 0.000E+00 0.000E+00 0.000E+00 0.000E+00
BIGSUB   2        0   11.43327E+03    53.848     0.000    33.703    18.845    94.942     4.067     0.002     0.000     1.267     0.000     0.000     0.000     0.000     0.000     0.000     1.253     0.013     0.000 .00000E+00 0.000E+00 0.000E+00 0.000E+00 0.000E+00 0.000E+00
BIGSUB   3        0   11.32812E+03    53.869     5.013    33.902    19.064    34.778     6.091     0.000     0.000     6.273     0.000     0.000     0.000     0.000     0.000     0.000     6.253     0.029     0.000 .00000E+00 0.000E+00 0.000E+00 0.000E+00 0.000E+00 0.000E+00
BIGSUB   4        0   11.83628E+03    50.398     5.013    32.664    16.934    46.488     1.128     0.000     0.000     5.745     0.000     0.000     0.000     0.000     0.000     0.000     5.737     0.024     0.000 .00000E+00 0.000E+00 0.000E+00 0.000E+00 0.000E+00 0.000E+00
BIGSUB   5        0   11.53492E+03    52.479     0.000    34.573    19.212    57.209     8.690     0.004     0.000     1.868     0.000     0.000     0.000     0.000     0.000     0.000     1.837     0.007     0.000 .00000E+00 0.000E+00 0.000E+00 0.000E+00 0.000E+00 0.000E+00
BIGSUB   6        0   11.28785E+03    44.017     0.000    27.862    14.437   117.915     0.000     0.000     0.000     0.340     0.000     0.000     0.000     0.000     0.000     0.000     0.295     0.011     0.000 .00000E+00 0.000E+00 0.000E+00 0.000E+00 0.000E+00 0.000E+00
BIGSUB   7        0   11.51917E+03    43.997     0.000    20.286    14.367   115.490     0.000     0.000     0.000     1.326     0.000     0.000     0.000     0.000     0.000     0.000     1.270     0.001     0.000 .00000E+00 0.000E+00 0.000E+00 0.000E+00 0.000E+00 0.000E+00
BIGSUB   8        0   11.73656E+03    50.394     5.013    32.644    21.364    23.420     6.066     2.218     0.000     9.070     1.307     1.146     0.140     0.005     0.001     0.195     6.821     0.087     0.000 .00000E+00 0.000E+00 0.000E+00 0.000E+00 0.000E+00 0.000E+00
BIGSUB   9        0   11.51556E+03    44.001     0.000     9.872     6.894    47.256     4.357     0.034     0.341     9.296     0.006     0.009     0.001     0.000     0.000     0.001     8.717     0.001     0.000 .00000E+00 0.000E+00 0.000E+00 0.000E+00 0.000E+00 0.000E+00
BIGSUB  10        0   11.53154E+03    44.016     0.000    20.990    13.705    35.233     7.136     0.027     0.087     6.014     0.007     0.013     0.002     0.000     0.000     0.002     5.728     0.007     0.000 .00000E+00 0.000E+00 0.000E+00 0.000E+00 0.000E+00 0.000E+00
BIGSUB  11        0   11.50741E+03    43.997     0.000    20.931    15.925    49.960     7.463     0.043     0.000     0.480     0.022     0.033     0.004     0.000     0.000     0.005     0.204     0.001     0.000 .00000E+00 0.000E+00 0.000E+00 0.000E+00 0.000E+00 0.000E+00
BIGSUB  12        0   11.46168E+03    43.985     0.000     9.787     7.879    44.599     1.996     0.002     0.032     9.305     0.000     0.000     0.000     0.000     0.000     0.000     9.054     0.000     0.000 .00000E+00 0.000E+00 0.000E+00 0.000E+00 0.000E+00 0.000E+00
BIGSUB  13        0   11.35104E+03    43.976     0.000    13.871     9.940    37.058     4.487     0.390     0.000    10.384     0.172     0.011     0.001     0.000     0.000     0.001     9.857     0.003     0.000 .00000E+00 0.000E+00 0.000E+00 0.000E+00 0.000E+00 0.000E+00
BIGSUB   1        0   12.49654E+03    36.998     2.000    24.078    17.157   101.977     4.521     0.000     0.373     1.098     0.000     0.000     0.000     0.000     0.000     0.000     0.725     0.015     0.000 .00000E+00 0.000E+00 0.000E+00 0.000E+00 0.000E+00 0.000E+00
BIGSUB   2        0   12.43327E+03    36.986     2.000    23.019    17.608   108.738     4.443     0.000     0.351     1.629     0.000     0.000     0.000     0.000     0.000     0.000     1.230     0.015     0.000 .00000E+00 0.000E+00 0.000E+00 0.000E+00 0.000E+00 0.000E+00
BIGSUB   3        0   12.32812E+03    37.001     9.700    22.256    17.507    39.386    10.105     0.000     0.305     5.427     0.000     0.000     0.000     0.000     0.000     0.000     5.041     0.026     0.000 .00000E+00 0.000E+00 0.000E+00 0.000E+00 0.000E+00 0.000E+00
BIGSUB   4        0   12.83628E+03    37.004     9.700    21.511    17.236    55.748     5.899     0.000     0.000     4.843     0.000     0.000     0.000     0.000     0.000     0.000     4.815     0.024     0.000 .00000E+00 0.000E+00 0.000E+00 0.000E+00 0.000E+00 0.000E+00
BIGSUB   5        0   12.53492E+03    37.013     2.000    23.914    18.055    64.324    10.103     0.000     0.659     2.632     0.000     0.000     0.000     0.000     0.000     0.000     1.867     0.007     0.000 .00000E+00 0.000E+00 0.000E+00 0.000E+00 0.000E+00 0.000E+00
BIGSUB   6        0   12.28785E+03    80.931     6.113    22.529    17.601   169.885    10.421     0.000     0.085     0.913     0.000     0.000     0.000     0.000     0.000     0.000     0.780     0.021     0.000 .00000E+00 0.000E+00 0.000E+00 0.000E+00 0.000E+00 0.000E+00
BIGSUB   7        0   12.51917E+03    80.894    10.700    14.637    13.238   171.885     7.549     0.000     0.000     3.532     0.000     0.000     0.000     0.000     0.000     0.000     3.481     0.013     0.000 .00000E+00 0.000E+00 0.000E+00 0.000E+00 0.000E+00 0.000E+00
BIGSUB   8        0   12.73656E+03    37.001     9.700    21.493    17.196    30.797     7.105     0.128     1.032     6.547     0.049     0.059     0.007     0.000     0.000     0.010     5.311     0.049     0.000 .00000E+00 0.000E+00 0.000E+00 0.000E+00 0.000E+00 0.000E+00
BIGSUB   9        0   12.51556E+03    80.903    10.700     4.131     3.502    69.978    32.650     1.114     2.503    24.735     0.754     0.448     0.055     0.000     0.000     0.053    20.871     0.035     0.000 .00000E+00 0.000E+00 0.000E+00 0.000E+00 0.000E+00 0.000E+00
BIGSUB  10        0   12.53154E+03    80.929    10.700    14.877    11.845    52.238    34.310     1.241     2.347    20.313     0.298     0.492     0.061     0.000     0.000     0.075    16.472     0.050     0.000 .00000E+00 0.000E+00 0.000E+00 0.000E+00 0.000E+00 0.000E+00
BIGSUB  11        0   12.50741E+03    80.894    10.700    14.859    12.143    64.046    52.486     1.392     2.434     4.785     0.494     0.836     0.106     0.000     0.000     0.123     0.616     0.003     0.001 .00000E+00 0.000E+00 0.000E+00 0.000E+00 0.000E+00 0.000E+00
BIGSUB  12        0   12.46168E+03    80.872    10.700     3.999     3.763    72.344    26.440     0.855     2.348    25.486     0.418     0.007     0.001     0.000     0.000     0.001    22.057     0.017     0.000 .00000E+00 0.000E+00 0.000E+00 0.000E+00 0.000E+00 0.000E+00
BIGSUB  13        0   12.35104E+03    80.856    17.200     7.111     6.639    58.698    25.999     5.261     1.814    28.614    15.627     0.078     0.010     0.000     0.000     0.012    21.355     0.048     0.000 .00000E+00 0.000E+00 0.000E+00 0.000E+00 0.000E+00 0.000E+00
BIGSUB   1        0 2015.49654E+03   211.577     6.100  1076.929   209.024   101.977     9.992     0.000     6.160     9.041     0.000     0.000     0.000     0.000     0.000     0.000     2.880     0.056     0.001 .00000E+00 0.000E+00 0.000E+00 0.000E+00 0.000E+00 0.000E+00
BIGSUB   2        0 2015.43327E+03   229.381     6.100  1032.576   229.175   108.738     9.358     0.003     5.389    10.743     0.000     0.000     0.000     0.000     0.000     0.000     4.820     0.049     0.002 .00000E+00 0.000E+00 0.000E+00 0.000E+00 0.000E+00 0.000E+00
BIGSUB   3        0 2015.32812E+03   229.474    38.400  1042.069   195.480    39.386    17.468     0.000     6.669    29.423     0.000     0.000     0.000     0.000     0.000     0.000    21.814     0.095     0.000 .00000E+00 0.000E+00 0.000E+00 0.000E+00 0.000E+00 0.000E+00
BIGSUB   4        0 2015.83628E+03   226.016    38.400  1066.099   204.299    55.748     7.555     0.000     2.538    24.705     0.000     0.000     0.000     0.000     0.000     0.000    21.704     0.092     0.000 .00000E+00 0.000E+00 0.000E+00 0.000E+00 0.000E+00 0.000E+00
BIGSUB   5        0 2015.53492E+03   228.142     6.100  1077.528   209.743    64.324    20.957     0.004    12.421    20.987     0.000     0.000     0.000     0.000     0.000     0.000     7.329     0.028     0.002 .00000E+00 0.000E+00 0.000E+00 0.000E+00 0.000E+00 0.000E+00
BIGSUB   6        0 2015.28785E+03   320.412    18.109  1045.411   315.884   169.885    22.345     0.883    14.050    20.186     0.539     0.640     0.078     0.001     0.000     0.107     2.768     0.070     0.006 .00000E+00 0.000E+00 0.000E+00 0.000E+00 0.000E+00 0.000E+00
BIGSUB   7        0 2015.51917E+03   333.495    42.607   880.337   320.162   171.885    36.915     1.646     4.436    20.601     0.988     1.404     0.180     0.010     0.000     0.225    11.895     0.090     0.001 .00000E+00 0.000E+00 0.000E+00 0.000E+00 0.000E+00 0.000E+00
BIGSUB   8        0 2015.73656E+03   225.999    38.400  1065.916   184.768    30.797    15.948     5.101     6.188    37.051     4.168     2.403     0.294     0.018     0.001     0.388    25.034     0.309     0.000 .00000E+00 0.000E+00 0.000E+00 0.000E+00 0.000E+00 0.000E+00
BIGSUB   9        0 2015.51556E+03   386.021    69.624   613.443   195.117    69.978   104.923    11.676   118.518   213.418    11.369     7.593     0.931     0.005     0.001     0.867    75.362     0.136     0.013 .00000E+00 0.000E+00 0.000E+00 0.000E+00 0.000E+00 0.000E+00
BIGSUB  10        0 2015.53154E+03   354.891    35.784   863.130   211.204    52.238    85.394     9.289    80.550   147.481    12.390    10.621     1.307     0.019     0.002     1.362    51.038     0.188     0.016 .00000E+00 0.000E+00 0.000E+00 0.000E+00 0.000E+00 0.000E+00
BIGSUB  11        0 2015.50741E+03   354.738    35.784   861.644   217.276    64.046   124.592    11.874   146.372   170.633     3.801     7.821     0.999     0.049     0.005     1.173     2.657     0.033     0.058 .00000E+00 0.000E+00 0.000E+00 0.000E+00 0.000E+00 0.000E+00
BIGSUB  12        0 2015.46168E+03   486.544    73.028   618.196   234.817    72.344   103.205    55.305   110.413   267.781   175.461    26.546     3.286     0.002     0.004     2.781    94.386     0.111     0.008 .00000E+00 0.000E+00 0.000E+00 0.000E+00 0.000E+00 0.000E+00
BIGSUB  13        0 2015.35104E+03   472.658    32.326   680.518   220.954    58.698    77.535    84.033    76.721   257.697   647.094    26.502     3.268     0.018     0.005     2.791    91.361     0.183     0.005 .00000E+00 0.000E+00 0.000E+00 0.000E+00 0.000E+00 0.000E+00
BIGSUB   1        0  6.0.49654E+03   299.343    11.535  1019.965   254.236   101.977    33.118     0.000    19.349    23.881     0.000     0.000     0.000     0.000     0.000     0.000     4.532     0.058     0.007 .00000E+00 0.000E+00 0.000E+00 0.000E+00 0.000E+00 0.000E+00
BIGSUB   2        0  6.0.43327E+03   333.578    11.536   979.061   290.532   108.738    24.643     1.274    14.313    24.714     0.305     0.488     0.060     0.001     0.000     0.091     7.948     0.081     0.004 .00000E+00 0.000E+00 0.000E+00 0.000E+00 0.000E+00 0.000E+00
BIGSUB   3        0  6.0.32812E+03   333.712    34.683   987.165   252.074    39.386    42.518     1.578    25.767    65.393     0.239     0.647     0.079     0.000     0.001     0.102    36.030     0.212     0.002 .00000E+00 0.000E+00 0.000E+00 0.000E+00 0.000E+00 0.000E+00
BIGSUB   4        0  6.0.83628E+03   332.794    34.683  1009.327   270.734    55.748    21.241     1.025    11.390    50.067     0.122     0.406     0.050     0.000     0.000     0.060    36.643     0.263     0.001 .00000E+00 0.000E+00 0.000E+00 0.000E+00 0.000E+00 0.000E+00
BIGSUB   5        0  6.0.53492E+03   333.366    11.535  1020.614   264.379    64.324    50.455     1.686    32.915    49.091     0.362     0.637     0.078     0.001     0.001     0.118    12.083     0.066     0.006 .00000E+00 0.000E+00 0.000E+00 0.000E+00 0.000E+00 0.000E+00
BIGSUB   6        0  6.0.28785E+03   393.383    14.078  1017.974   335.901   169.885    43.830     0.867    21.488    27.673     0.430     0.550     0.067     0.000     0.000     0.091     3.224     0.096     0.015 .00000E+00 0.000E+00 0.000E+00 0.000E+00 0.000E+00 0.000E+00
BIGSUB   7        0  6.0.51917E+03   407.522    41.462  1065.515   334.134   171.885    58.307     1.223    36.313    54.784     1.073     1.336     0.165     0.003     0.000     0.204    14.407     0.156     0.025 .00000E+00 0.000E+00 0.000E+00 0.000E+00 0.000E+00 0.000E+00
BIGSUB   8        0  6.0.73656E+03   332.769    34.683  1009.150   244.780    30.797    28.765    21.185    16.274    75.712    25.102     8.575     1.051     0.026     0.005     1.392    36.874     0.241     0.001 .00000E+00 0.000E+00 0.000E+00 0.000E+00 0.000E+00 0.000E+00
BIGSUB   9        0  6.0.51556E+03   596.325   159.165   656.308   223.394    69.978   207.001    39.058   172.859   349.389    19.193    14.857     1.822     0.017     0.006     1.707   126.824     0.274     0.022 .00000E+00 0.000E+00 0.000E+00 0.000E+00 0.000E+00 0.000E+00
BIGSUB  10        0  6.0.53154E+03   453.720    52.054  1020.139   238.546    52.238   131.805    12.110    80.238   169.824    12.112     8.323     1.020     0.021     0.003     1.044    70.948     0.333     0.015 .00000E+00 0.000E+00 0.000E+00 0.000E+00 0.000E+00 0.000E+00
BIGSUB  11        0  6.0.50741E+03   453.524    52.054  1019.452   248.512    64.046   188.787    12.796   132.488   157.800     2.976     6.485     0.810     0.039     0.004     0.916     3.145     0.036     0.049 .00000E+00 0.000E+00 0.000E+00 0.000E+00 0.000E+00 0.000E+00
BIGSUB  12        0  6.0.46168E+03   762.219   173.579   658.807   258.599    72.344   245.878    81.649   208.643   478.978   117.662    20.423     2.533     0.012     0.005     2.139   176.106     0.294     0.024 .00000E+00 0.000E+00 0.000E+00 0.000E+00 0.000E+00 0.000E+00
BIGSUB  13        0  6.0.35104E+03   674.788    13.646   652.656   255.153    58.698   160.464   108.275   123.188   390.114   405.299    20.482     2.536     0.050     0.005     2.136   150.645     0.459     0.014 .00000E+00 0.000E+00 0.000E+00 0.000E+00 0.000E+00 0.000E+00
