1
    SWAT Dec 23 2016    VER 2016/Rev 664                                                                 0/ 0/   0      0: 0: 0

    General Input/Output section (file.cio):                                        
    4/30/2018 12:00:00 AM ARCGIS-SWAT interface AV                                  
                                                                                    


LULC  HRU       GIS  SUB  MGT  MON   AREAkm2  PNDPCPmm  PND_INmmPSED_It/ha  PNDEVPmm  PNDSEPmm PND_OUTmmPSED_Ot/ha PNDVOLm^3PNDORGNppm PNDNO3ppmPNDORGPppmPNDMINPppmPNDCHLAppm  PNDSECIm  WETPCPmm  WET_INmmWSED_It/ha  WETEVPmm  WETSEPmm WET_OUTmmWSED_Ot/ha WETVOLm^3WETORGNppm WETNO3ppmWETORGPppmWETMINPppmWETCHLAppm  WETSECIm  POTPCPmm  POT_INmmOSED_It/ha  POTEVPmm  POTSEPmm POT_OUTmmOSED_Ot/ha POTVOLm^3  POT_SAhaHRU_SURQmmPLANT_ETmm SOIL_ETmm
