1
    SWAT Dec 23 2016    VER 2016/Rev 664                                                                 0/ 0/   0      0: 0: 0

    General Input/Output section (file.cio):                                        
    4/30/2018 12:00:00 AM ARCGIS-SWAT interface AV                                  
                                                                                    
         Number of years in run:    8
         Area of watershed:     6539.938 km2
         Random number generator cycles: 0, use default numbers

         Initial random number seed: wet/dry day prob        748932582
         Initial random number seed: radiation              1948832765
         Initial random number seed: precipitation           857034417
         Initial random number seed: 0.5 hr rainfall          67377721
         Initial random number seed: wind speed              366304404
         Initial random number seed: irrigation             1094585182
         Initial random number seed: relative humidity      1767585417
         Initial random number seed: max temperature         608439319
         Initial random number seed: min temperature         592757081

         Precipitation data used in run:
          Multiple gages read for watershed
             Daily rainfall data used

         Temperature data used in run:
          Multiple gages read for watershed

         PET method used: Penman-Monteith

         Rainfall/Runoff/Routing Option:
          Daily rainfall data
          Runoff estimated with curve number method
          Daily stream routing
           Variable Storage routing method
           Channel dimensions remain constant
           Subbasin algae/CBOD loadings not modeled
           In-stream nutrient transformations modeled using QUAL2E equations

         Subbasin Input Summary:
          Sub Latitude  Elev(m) #HRUs Ponds Elevbnds Wetlnd
            1    45.73   278.56    16                   
            2    45.73   441.63    20                   
            3    45.73   668.35     9                   
            4    45.73   919.64     6                   
            5    45.73   480.90    17                   
            6    45.73   336.94    16                   
            7    45.73   407.53    25                   
            8    45.73   920.90    15                   
            9    45.73   943.33    10                   
           10    45.73   665.13    23                   
           11    45.73   569.71     6                   
           12    45.73  1180.68    14                   
           13    45.73  1196.46     8                   

         HRU Input Summary Table 1:
          Sub   HRU   Area(ha) Slope SlpLgth(m) Ovrlnd_N CondII_CN TimeConc(hr) ESCO EPCO
            1      1    5972.10 0.023      91.46    0.140     35.00        0.905 0.95 1.00
            1      2    3283.72 0.041      91.46    0.140     35.00        0.734 0.95 1.00
            1      3     450.24 0.140      24.39    0.140     35.00        0.221 0.95 1.00
            1      4    2250.16 0.058      60.98    0.140     35.00        0.519 0.95 1.00
            1      5     730.12 0.135      24.39    0.140     35.00        0.229 0.95 1.00
            1      6    1921.04 0.137      24.39    0.140     35.00        0.251 0.95 1.00
            1      7    3000.00 0.064      60.98    0.140     35.00        0.519 0.95 1.00
            1      8    3001.78 0.024      91.46    0.140     35.00        0.846 0.95 1.00
            1      9    3263.81 0.047      91.46    0.140     35.00        0.707 0.95 1.00
            1     10     649.06 0.135      24.39    0.140     35.00        0.227 0.95 1.00
            1     11    2669.12 0.143      24.39    0.150     35.00        0.271 0.95 1.00
            1     12    2869.97 0.064      60.98    0.150     35.00        0.536 0.95 1.00
            1     13    1386.99 0.273       9.15    0.150     35.00        0.130 0.95 1.00
            1     14   14696.63 0.021      91.46    0.150     35.00        1.092 0.95 1.00
            1     15     853.86 0.138      24.39    0.150     35.00        0.239 0.95 1.00
            1     16    2651.82 0.052      60.98    0.150     35.00        0.563 0.95 1.00
            2     17    6030.03 0.030      91.46    0.140     58.00        0.956 0.95 1.00
            2     18     197.49 0.257       9.15    0.140     69.00        0.108 0.95 1.00
            2     19     579.03 0.144      24.39    0.140     69.00        0.236 0.95 1.00
            2     20     395.67 0.067      60.98    0.140     69.00        0.473 0.95 1.00
            2     21    3573.49 0.026      91.46    0.140     58.00        0.907 0.95 1.00
            2     22    7241.91 0.026      91.46    0.140     62.00        1.027 0.95 1.00
            2     23     525.68 0.067      60.98    0.140     72.00        0.479 0.95 1.00
            2     24     873.23 0.147      24.39    0.140     72.00        0.247 0.95 1.00
            2     25     419.09 0.263       9.15    0.140     72.00        0.118 0.95 1.00
            2     26    2842.09 0.026      91.46    0.140     62.00        0.882 0.95 1.00
            2     27     795.78 0.140      24.39    0.150     46.00        0.256 0.95 1.00
            2     28    1912.31 0.050      91.46    0.150     46.00        0.738 0.95 1.00
            2     29    1327.49 0.063      60.98    0.150     65.00        0.540 0.95 1.00
            2     30    2643.21 0.152      24.39    0.150     65.00        0.320 0.95 1.00
            2     31    3992.81 0.307       9.15    0.150     65.00        0.250 0.95 1.00
            2     32    1702.11 0.284       9.15    0.150     59.00        0.171 0.95 1.00
            2     33    1738.58 0.149      24.39    0.150     59.00        0.289 0.95 1.00
            2     34    1129.31 0.063      60.98    0.150     59.00        0.532 0.95 1.00
            2     35     999.72 0.137      24.39    0.150     46.00        0.266 0.95 1.00
            2     36    4391.29 0.039      91.46    0.150     46.00        0.876 0.95 1.00
            3     37    1484.49 0.064      60.98    0.150     65.00        0.633 0.95 1.00
            3     38    2558.93 0.151      24.39    0.150     65.00        0.462 0.95 1.00
            3     39    5201.96 0.326       9.15    0.150     65.00        0.556 0.95 1.00
            3     40    1321.11 0.059      60.98    0.150     59.00        0.630 0.95 1.00
            3     41    2313.26 0.153      24.39    0.150     59.00        0.440 0.95 1.00
            3     42    7910.70 0.345       9.15    0.150     59.00        0.759 0.95 1.00
            3     43    1811.25 0.061      60.98    0.150     65.00        0.669 0.95 1.00
            3     44    3397.30 0.152      24.39    0.150     65.00        0.531 0.95 1.00
            3     45    6813.88 0.321       9.15    0.150     65.00        0.679 0.95 1.00
            4     46   11015.16 0.053      60.98    0.150     59.00        1.242 0.95 1.00
            4     47   27514.38 0.330       9.15    0.150     59.00        1.732 0.95 1.00
            4     48   11919.45 0.152      24.39    0.150     59.00        1.001 0.95 1.00
            4     49    8751.73 0.150      24.39    0.150     65.00        0.815 0.95 1.00
            4     50   17129.45 0.344       9.15    0.150     65.00        1.174 0.95 1.00
            4     51    7306.85 0.055      60.98    0.150     65.00        1.014 0.95 1.00
            5     52     415.25 0.136      24.39    0.140     62.00        0.273 0.95 1.00
            5     53    1839.64 0.049      91.46    0.140     62.00        0.863 0.95 1.00
            5     54    1256.19 0.135      24.39    0.140     72.00        0.375 0.95 1.00
            5     55    2284.94 0.063      60.98    0.140     72.00        0.737 0.95 1.00
            5     56    1806.34 0.053      60.98    0.140     68.00        0.710 0.95 1.00
            5     57     542.39 0.134      24.39    0.140     68.00        0.291 0.95 1.00
            5     58    1529.51 0.049      91.46    0.140     62.00        0.829 0.95 1.00
            5     59     334.76 0.138      24.39    0.140     62.00        0.262 0.95 1.00
            5     60    2525.38 0.146      24.39    0.150     46.00        0.517 0.95 1.00
            5     61    2732.58 0.323       9.15    0.150     46.00        0.417 0.95 1.00
            5     62    2874.22 0.059      60.98    0.150     46.00        0.828 0.95 1.00
            5     63    9117.39 0.065      60.98    0.150     65.00        1.402 0.95 1.00
            5     64   10055.34 0.144      24.39    0.150     65.00        1.225 0.95 1.00
            5     65    7402.50 0.309       9.15    0.150     65.00        0.867 0.95 1.00
            5     66    2432.17 0.143      24.39    0.150     59.00        0.508 0.95 1.00
            5     67    4711.68 0.052      60.98    0.150     59.00        1.029 0.95 1.00
            5     68    1650.38 0.295       9.15    0.150     59.00        0.304 0.95 1.00
            6     69    3052.59 0.034      91.46    0.140     58.00        0.864 0.95 1.00
            6     70    4655.12 0.039      91.46    0.140     58.00        0.904 0.95 1.00
            6     71    1223.34 0.034      91.46    0.140     47.00        0.778 0.95 1.00
            6     72     145.45 0.136      24.39    0.140     47.00        0.222 0.95 1.00
            6     73     271.43 0.138      24.39    0.140     58.00        0.229 0.95 1.00
            6     74    1563.14 0.038      91.46    0.140     58.00        0.771 0.95 1.00
            6     75    5175.58 0.037      91.46    0.140     62.00        0.937 0.95 1.00
            6     76     490.58 0.134      24.39    0.140     62.00        0.244 0.95 1.00
            6     77    3169.15 0.043      91.46    0.140     62.00        0.821 0.95 1.00
            6     78     235.06 0.137      24.39    0.140     62.00        0.227 0.95 1.00
            6     79    1493.38 0.038      91.46    0.140     62.00        0.768 0.95 1.00
            6     80     582.69 0.139      24.39    0.150     46.00        0.255 0.95 1.00
            6     81    4184.57 0.038      91.46    0.150     46.00        0.919 0.95 1.00
            6     82     261.35 0.139      24.39    0.150     46.00        0.237 0.95 1.00
            6     83     837.40 0.046      91.46    0.150     46.00        0.724 0.95 1.00
            6     84    1454.88 0.023      91.46    0.150     35.00        0.911 0.95 1.00
            7     85    1187.90 0.060      60.98    0.140     58.00        0.503 0.95 1.00
            7     86    1202.79 0.144      24.39    0.140     58.00        0.243 0.95 1.00
            7     87     616.55 0.277       9.15    0.140     58.00        0.115 0.95 1.00
            7     88    8202.26 0.056      60.98    0.140     58.00        0.668 0.95 1.00
            7     89    3761.22 0.137      24.39    0.140     58.00        0.307 0.95 1.00
            7     90     559.09 0.140      24.39    0.140     58.00        0.228 0.95 1.00
            7     91    1606.56 0.050      91.46    0.140     58.00        0.676 0.95 1.00
            7     92     769.71 0.287       9.15    0.140     62.00        0.118 0.95 1.00
            7     93    1253.72 0.144      24.39    0.140     62.00        0.245 0.95 1.00
            7     94    1249.04 0.062      60.98    0.140     62.00        0.500 0.95 1.00
            7     95    9195.54 0.057      60.98    0.140     62.00        0.686 0.95 1.00
            7     96    4476.03 0.138      24.39    0.140     62.00        0.322 0.95 1.00
            7     97    1472.73 0.051      60.98    0.140     62.00        0.534 0.95 1.00
            7     98     468.15 0.139      24.39    0.140     62.00        0.226 0.95 1.00
            7     99    1406.75 0.314       9.15    0.150     46.00        0.136 0.95 1.00
            7    100    1650.73 0.145      24.39    0.150     46.00        0.263 0.95 1.00
            7    101    1880.12 0.059      60.98    0.150     46.00        0.543 0.95 1.00
            7    102     644.08 0.288       9.15    0.150     46.00        0.118 0.95 1.00
            7    103    1369.31 0.141      24.39    0.150     46.00        0.258 0.95 1.00
            7    104    2173.99 0.058      60.98    0.150     46.00        0.552 0.95 1.00
            7    105     714.48 0.141      24.39    0.150     35.00        0.240 0.95 1.00
            7    106    2088.61 0.042      91.46    0.150     35.00        0.750 0.95 1.00
            7    107    1065.42 0.144      24.39    0.150     46.00        0.248 0.95 1.00
            7    108    2132.61 0.051      60.98    0.150     46.00        0.571 0.95 1.00
            7    109     766.55 0.304       9.15    0.150     46.00        0.120 0.95 1.00
            8    110    1180.41 0.155      24.39    0.100     85.00        0.213 0.70 1.00
            8    111    8696.98 0.450       9.15    0.100     85.00        0.338 0.70 1.00
            8    112    2229.05 0.056      60.98    0.100     85.00        0.473 0.70 1.00
            8    113    1863.06 0.146      24.39    0.100     85.00        0.240 0.70 1.00
            8    114    3627.21 0.384       9.15    0.100     85.00        0.196 0.70 1.00
            8    115    8296.91 0.430       9.15    0.150     85.00        0.347 0.70 1.00
            8    116    7895.47 0.052      60.98    0.150     85.00        0.759 0.70 1.00
            8    117    2796.67 0.298       9.15    0.150     85.00        0.197 0.70 1.00
            8    118    4569.93 0.143      24.39    0.150     85.00        0.371 0.70 1.00
            8    119     662.34 0.306       9.15    0.150     85.00        0.124 0.70 1.00
            8    120    4384.33 0.051      60.98    0.150     85.00        0.661 0.70 1.00
            8    121    1552.94 0.138      24.39    0.150     85.00        0.279 0.70 1.00
            8    122    3331.74 0.058      60.98    0.150     85.00        0.610 0.70 1.00
            8    123    6556.10 0.153      24.39    0.150     85.00        0.424 0.70 1.00
            8    124   16015.16 0.346       9.15    0.150     85.00        0.555 0.70 1.00
            9    125    7560.20 0.548       9.15    0.100     70.00        0.669 1.18 0.25
            9    126    3406.96 0.418       9.15    0.100     70.00        0.370 1.18 0.25
            9    127    5296.77 0.051      60.98    0.100     70.00        0.846 1.18 0.25
            9    128    2417.58 0.141      24.39    0.100     70.00        0.394 1.18 0.25
            9    129   15381.55 0.476       9.15    0.150     70.00        1.212 1.18 0.25
            9    130    7267.11 0.391       9.15    0.150     70.00        0.675 1.18 0.25
            9    131    1572.88 0.154      24.39    0.150     70.00        0.366 1.18 0.25
            9    132    1852.58 0.142      24.39    0.150     70.00        0.395 1.18 0.25
            9    133    2763.94 0.409       9.15    0.150     70.00        0.339 1.18 0.25
            9    134    4037.89 0.052      60.98    0.150     70.00        0.860 1.18 0.25
           10    135    1176.57 0.033      91.46    0.140     70.00        0.808 0.98 0.25
           10    136     209.56 0.138      24.39    0.140     70.00        0.231 0.98 0.25
           10    137    5754.71 0.036      91.46    0.140     70.00        1.072 0.98 0.25
           10    138    1543.16 0.034      91.46    0.140     70.00        0.827 0.98 0.25
           10    139     300.24 0.140      24.39    0.140     70.00        0.238 0.98 0.25
           10    140     124.30 0.139      24.39    0.140     70.00        0.223 0.98 0.25
           10    141     989.27 0.027      91.46    0.140     70.00        0.839 0.98 0.25
           10    142    5142.39 0.036      91.46    0.140     70.00        1.037 0.98 0.25
           10    143    1300.01 0.028      91.46    0.140     70.00        0.853 0.98 0.25
           10    144     183.37 0.143      24.39    0.140     70.00        0.227 0.98 0.25
           10    145    4348.03 0.516       9.15    0.100     70.00        0.359 0.98 0.25
           10    146     836.51 0.145      24.39    0.100     70.00        0.239 0.98 0.25
           10    147    1404.91 0.385       9.15    0.100     70.00        0.180 0.98 0.25
           10    148    1103.10 0.054      60.98    0.100     70.00        0.484 0.98 0.25
           10    149    9785.46 0.471       9.15    0.150     70.00        0.683 0.98 0.25
           10    150    3171.74 0.051      60.98    0.150     70.00        0.736 0.98 0.25
           10    151    1463.39 0.140      24.39    0.150     70.00        0.332 0.98 0.25
           10    152    6581.48 0.366       9.15    0.150     70.00        0.514 0.98 0.25
           10    153    1191.20 0.069      60.98    0.150     70.00        0.563 0.98 0.25
           10    154    2778.93 0.152      24.39    0.150     70.00        0.412 0.98 0.25
           10    155    1171.97 0.056      60.98    0.150     70.00        0.592 0.98 0.25
           10    156    1583.19 0.386       9.15    0.150     70.00        0.211 0.98 0.25
           10    157    1029.47 0.146      24.39    0.150     70.00        0.299 0.98 0.25
           11    158    2623.26 0.135      24.39    0.140     70.00        0.447 0.98 0.25
           11    159   14262.43 0.046      91.46    0.140     70.00        1.681 0.98 0.25
           11    160   12177.11 0.038      91.46    0.140     70.00        1.585 0.98 0.25
           11    161   12695.05 0.047      91.46    0.140     70.00        1.576 0.98 0.25
           11    162    2439.90 0.134      24.39    0.140     70.00        0.433 0.98 0.25
           11    163    6539.30 0.039      91.46    0.140     70.00        1.202 0.98 0.25
           12    164     836.62 0.061      60.98    0.100     70.00        0.485 0.98 0.25
           12    165    1062.52 0.148      24.39    0.100     70.00        0.297 0.98 0.25
           12    166    4021.37 0.478       9.15    0.100     70.00        0.479 0.98 0.25
           12    167   15570.49 0.562       9.15    0.100     70.00        1.413 0.98 0.25
           12    168    3210.24 0.145      24.39    0.100     70.00        0.509 0.98 0.25
           12    169    3615.74 0.377       9.15    0.100     70.00        0.447 0.98 0.25
           12    170    4104.50 0.054      60.98    0.100     70.00        0.815 0.98 0.25
           12    171     966.11 0.501       9.15    0.150     70.00        0.201 0.98 0.25
           12    172     229.04 0.053      60.98    0.150     70.00        0.540 0.98 0.25
           12    173     184.55 0.146      24.39    0.150     70.00        0.244 0.98 0.25
           12    174    9363.80 0.559       9.15    0.150     70.00        0.945 0.98 0.25
           12    175     771.27 0.144      24.39    0.150     70.00        0.314 0.98 0.25
           12    176    1258.28 0.052      60.98    0.150     70.00        0.659 0.98 0.25
           12    177     957.65 0.411       9.15    0.150     70.00        0.205 0.98 0.25
           13    178    4996.17 0.417       9.15    0.100     80.00        0.285 0.98 0.25
           13    179    2776.84 0.056      60.98    0.100     80.00        0.520 0.98 0.25
           13    180    2528.21 0.147      24.39    0.100     80.00        0.288 0.98 0.25
           13    181   16370.72 0.585       9.15    0.100     80.00        0.674 0.98 0.25
           13    182     436.16 0.052      60.98    0.150     80.00        0.535 0.98 0.25
           13    183     332.43 0.145      24.39    0.150     80.00        0.236 0.98 0.25
           13    184     773.17 0.464       9.15    0.150     80.00        0.127 0.98 0.25
           13    185    6871.20 0.568       9.15    0.150     80.00        0.366 0.98 0.25

         HRU CN Input Summary Table:
          Sub   HRU   Area(ha)  LULC      Soil    CN1    CN2    CN3  Wilting Point (mm H2O)  Field Capacity (mm H2O)  Saturation (mm H2O)
            1      1    5972.10  WWHT  Quincy     15.1   35.0   54.2                    38.3                    152.0                567.9
            1      2    3283.72  WWHT  Shano      15.1   35.0   54.2                    68.1                    313.5                725.5
            1      3     450.24  WWHT  Shano      15.1   35.0   54.2                    68.1                    313.5                725.5
            1      4    2250.16  AGRL  Ritzvill   15.1   35.0   54.2                    34.8                    182.0                437.5
            1      5     730.12  AGRL  Ritzvill   15.1   35.0   54.2                    34.8                    182.0                437.5
            1      6    1921.04  AGRL  Bakeoven   15.1   35.0   54.2                    31.3                     23.1                150.2
            1      7    3000.00  AGRL  Bakeoven   15.1   35.0   54.2                    31.3                     23.1                150.2
            1      8    3001.78  AGRL  Quincy     15.1   35.0   54.2                    38.3                    152.0                567.9
            1      9    3263.81  AGRL  Shano      15.1   35.0   54.2                    68.1                    313.5                725.5
            1     10     649.06  AGRL  Shano      15.1   35.0   54.2                    68.1                    313.5                725.5
            1     11    2669.12  RNGB  Bakeoven   15.1   35.0   54.2                    31.3                     23.1                150.2
            1     12    2869.97  RNGB  Bakeoven   15.1   35.0   54.2                    31.3                     23.1                150.2
            1     13    1386.99  RNGB  Bakeoven   15.1   35.0   54.2                    31.3                     23.1                150.2
            1     14   14696.63  RNGB  Quincy     15.1   35.0   54.2                    38.3                    152.0                567.9
            1     15     853.86  RNGB  Shano      15.1   35.0   54.2                    68.1                    313.5                725.5
            1     16    2651.82  RNGB  Shano      15.1   35.0   54.2                    68.1                    313.5                725.5
            2     17    6030.03  WWHT  Ritzvill   38.4   58.0   76.9                    34.8                    182.0                437.5
            2     18     197.49  WWHT  Bakeoven   50.1   69.0   85.0                    31.3                     23.1                150.2
            2     19     579.03  WWHT  Bakeoven   50.1   69.0   85.0                    31.3                     23.1                150.2
            2     20     395.67  WWHT  Bakeoven   50.1   69.0   85.0                    31.3                     23.1                150.2
            2     21    3573.49  WWHT  Warden     38.4   58.0   76.9                    95.9                    291.2                616.0
            2     22    7241.91  AGRL  Ritzvill   42.6   62.0   80.1                    34.8                    182.0                437.5
            2     23     525.68  AGRL  Bakeoven   53.4   72.0   86.9                    31.3                     23.1                150.2
            2     24     873.23  AGRL  Bakeoven   53.4   72.0   86.9                    31.3                     23.1                150.2
            2     25     419.09  AGRL  Bakeoven   53.4   72.0   86.9                    31.3                     23.1                150.2
            2     26    2842.09  AGRL  Warden     42.6   62.0   80.1                    95.9                    291.2                616.0
            2     27     795.78  RNGB  Ritzvill   26.1   46.0   66.2                    34.8                    182.0                437.5
            2     28    1912.31  RNGB  Ritzvill   26.1   46.0   66.2                    34.8                    182.0                437.5
            2     29    1327.49  RNGB  Bakeoven   45.7   65.0   82.3                    31.3                     23.1                150.2
            2     30    2643.21  RNGB  Bakeoven   45.7   65.0   82.3                    31.3                     23.1                150.2
            2     31    3992.81  RNGB  Bakeoven   45.7   65.0   82.3                    31.3                     23.1                150.2
            2     32    1702.11  RNGB  Morrow     39.4   59.0   77.7                   133.8                    196.5                461.7
            2     33    1738.58  RNGB  Morrow     39.4   59.0   77.7                   133.8                    196.5                461.7
            2     34    1129.31  RNGB  Morrow     39.4   59.0   77.7                   133.8                    196.5                461.7
            2     35     999.72  RNGB  Warden     26.1   46.0   66.2                    95.9                    291.2                616.0
            2     36    4391.29  RNGB  Warden     26.1   46.0   66.2                    95.9                    291.2                616.0
            3     37    1484.49  RNGB  Bakeoven   45.7   65.0   82.3                    31.3                     23.1                150.2
            3     38    2558.93  RNGB  Bakeoven   45.7   65.0   82.3                    31.3                     23.1                150.2
            3     39    5201.96  RNGB  Bakeoven   45.7   65.0   82.3                    31.3                     23.1                150.2
            3     40    1321.11  RNGB  Morrow     39.4   59.0   77.7                   133.8                    196.5                461.7
            3     41    2313.26  RNGB  Morrow     39.4   59.0   77.7                   133.8                    196.5                461.7
            3     42    7910.70  RNGB  Morrow     39.4   59.0   77.7                   133.8                    196.5                461.7
            3     43    1811.25  RNGB  Gwin       45.7   65.0   82.3                    38.2                     32.5                184.3
            3     44    3397.30  RNGB  Gwin       45.7   65.0   82.3                    38.2                     32.5                184.3
            3     45    6813.88  RNGB  Gwin       45.7   65.0   82.3                    38.2                     32.5                184.3
            4     46   11015.16  RNGB  Morrow     39.4   59.0   77.7                   133.8                    196.5                461.7
            4     47   27514.38  RNGB  Morrow     39.4   59.0   77.7                   133.8                    196.5                461.7
            4     48   11919.45  RNGB  Morrow     39.4   59.0   77.7                   133.8                    196.5                461.7
            4     49    8751.73  RNGB  Gwin       45.7   65.0   82.3                    38.2                     32.5                184.3
            4     50   17129.45  RNGB  Gwin       45.7   65.0   82.3                    38.2                     32.5                184.3
            4     51    7306.85  RNGB  Gwin       45.7   65.0   82.3                    38.2                     32.5                184.3
            5     52     415.25  AGRL  Ritzvill   42.6   62.0   80.1                    34.8                    182.0                437.5
            5     53    1839.64  AGRL  Ritzvill   42.6   62.0   80.1                    34.8                    182.0                437.5
            5     54    1256.19  AGRL  Bakeoven   53.4   72.0   86.9                    31.3                     23.1                150.2
            5     55    2284.94  AGRL  Bakeoven   53.4   72.0   86.9                    31.3                     23.1                150.2
            5     56    1806.34  AGRL  Morrow     49.0   68.0   84.3                   133.8                    196.5                461.7
            5     57     542.39  AGRL  Morrow     49.0   68.0   84.3                   133.8                    196.5                461.7
            5     58    1529.51  AGRL  Shano      42.6   62.0   80.1                    68.1                    313.5                725.5
            5     59     334.76  AGRL  Shano      42.6   62.0   80.1                    68.1                    313.5                725.5
            5     60    2525.38  RNGB  Ritzvill   26.1   46.0   66.2                    34.8                    182.0                437.5
            5     61    2732.58  RNGB  Ritzvill   26.1   46.0   66.2                    34.8                    182.0                437.5
            5     62    2874.22  RNGB  Ritzvill   26.1   46.0   66.2                    34.8                    182.0                437.5
            5     63    9117.39  RNGB  Bakeoven   45.7   65.0   82.3                    31.3                     23.1                150.2
            5     64   10055.34  RNGB  Bakeoven   45.7   65.0   82.3                    31.3                     23.1                150.2
            5     65    7402.50  RNGB  Bakeoven   45.7   65.0   82.3                    31.3                     23.1                150.2
            5     66    2432.17  RNGB  Morrow     39.4   59.0   77.7                   133.8                    196.5                461.7
            5     67    4711.68  RNGB  Morrow     39.4   59.0   77.7                   133.8                    196.5                461.7
            5     68    1650.38  RNGB  Morrow     39.4   59.0   77.7                   133.8                    196.5                461.7
            6     69    3052.59  WWHT  Ritzvill   38.4   58.0   76.9                    34.8                    182.0                437.5
            6     70    4655.12  WWHT  Walla Wa   38.4   58.0   76.9                    82.5                    216.6                501.5
            6     71    1223.34  WWHT  Quincy     27.2   47.0   67.1                    38.3                    152.0                567.9
            6     72     145.45  WWHT  Quincy     27.2   47.0   67.1                    38.3                    152.0                567.9
            6     73     271.43  WWHT  Shano      38.4   58.0   76.9                    68.1                    313.5                725.5
            6     74    1563.14  WWHT  Shano      38.4   58.0   76.9                    68.1                    313.5                725.5
            6     75    5175.58  AGRL  Ritzvill   42.6   62.0   80.1                    34.8                    182.0                437.5
            6     76     490.58  AGRL  Walla Wa   42.6   62.0   80.1                    82.5                    216.6                501.5
            6     77    3169.15  AGRL  Walla Wa   42.6   62.0   80.1                    82.5                    216.6                501.5
            6     78     235.06  AGRL  Shano      42.6   62.0   80.1                    68.1                    313.5                725.5
            6     79    1493.38  AGRL  Shano      42.6   62.0   80.1                    68.1                    313.5                725.5
            6     80     582.69  RNGB  Ritzvill   26.1   46.0   66.2                    34.8                    182.0                437.5
            6     81    4184.57  RNGB  Ritzvill   26.1   46.0   66.2                    34.8                    182.0                437.5
            6     82     261.35  RNGB  Walla Wa   26.1   46.0   66.2                    82.5                    216.6                501.5
            6     83     837.40  RNGB  Walla Wa   26.1   46.0   66.2                    82.5                    216.6                501.5
            6     84    1454.88  RNGB  Quincy     15.1   35.0   54.2                    38.3                    152.0                567.9
            7     85    1187.90  WWHT  Ritzvill   38.4   58.0   76.9                    34.8                    182.0                437.5
            7     86    1202.79  WWHT  Ritzvill   38.4   58.0   76.9                    34.8                    182.0                437.5
            7     87     616.55  WWHT  Ritzvill   38.4   58.0   76.9                    34.8                    182.0                437.5
            7     88    8202.26  WWHT  Walla Wa   38.4   58.0   76.9                    82.5                    216.6                501.5
            7     89    3761.22  WWHT  Walla Wa   38.4   58.0   76.9                    82.5                    216.6                501.5
            7     90     559.09  WWHT  Shano      38.4   58.0   76.9                    68.1                    313.5                725.5
            7     91    1606.56  WWHT  Shano      38.4   58.0   76.9                    68.1                    313.5                725.5
            7     92     769.71  AGRL  Ritzvill   42.6   62.0   80.1                    34.8                    182.0                437.5
            7     93    1253.72  AGRL  Ritzvill   42.6   62.0   80.1                    34.8                    182.0                437.5
            7     94    1249.04  AGRL  Ritzvill   42.6   62.0   80.1                    34.8                    182.0                437.5
            7     95    9195.54  AGRL  Walla Wa   42.6   62.0   80.1                    82.5                    216.6                501.5
            7     96    4476.03  AGRL  Walla Wa   42.6   62.0   80.1                    82.5                    216.6                501.5
            7     97    1472.73  AGRL  Shano      42.6   62.0   80.1                    68.1                    313.5                725.5
            7     98     468.15  AGRL  Shano      42.6   62.0   80.1                    68.1                    313.5                725.5
            7     99    1406.75  RNGB  Ritzvill   26.1   46.0   66.2                    34.8                    182.0                437.5
            7    100    1650.73  RNGB  Ritzvill   26.1   46.0   66.2                    34.8                    182.0                437.5
            7    101    1880.12  RNGB  Ritzvill   26.1   46.0   66.2                    34.8                    182.0                437.5
            7    102     644.08  RNGB  Walla Wa   26.1   46.0   66.2                    82.5                    216.6                501.5
            7    103    1369.31  RNGB  Walla Wa   26.1   46.0   66.2                    82.5                    216.6                501.5
            7    104    2173.99  RNGB  Walla Wa   26.1   46.0   66.2                    82.5                    216.6                501.5
            7    105     714.48  RNGB  Quincy     15.1   35.0   54.2                    38.3                    152.0                567.9
            7    106    2088.61  RNGB  Quincy     15.1   35.0   54.2                    38.3                    152.0                567.9
            7    107    1065.42  RNGB  Shano      26.1   46.0   66.2                    68.1                    313.5                725.5
            7    108    2132.61  RNGB  Shano      26.1   46.0   66.2                    68.1                    313.5                725.5
            7    109     766.55  RNGB  Shano      26.1   46.0   66.2                    68.1                    313.5                725.5
            8    110    1180.41  FRSE  Tolo       69.9   85.0   94.0                    26.2                     75.6                566.5
            8    111    8696.98  FRSE  Tolo       69.9   85.0   94.0                    26.2                     75.6                566.5
            8    112    2229.05  FRSE  Tolo       69.9   85.0   94.0                   155.4                     92.0                747.6
            8    113    1863.06  FRSE  Tolo       69.9   85.0   94.0                   155.4                     92.0                747.6
            8    114    3627.21  FRSE  Tolo       69.9   85.0   94.0                   155.4                     92.0                747.6
            8    115    8296.91  RNGB  Tolo       69.9   85.0   94.0                    26.2                     75.6                566.5
            8    116    7895.47  RNGB  Morrow     69.9   85.0   94.0                   133.8                     51.0                461.7
            8    117    2796.67  RNGB  Morrow     69.9   85.0   94.0                   133.8                     51.0                461.7
            8    118    4569.93  RNGB  Morrow     69.9   85.0   94.0                   133.8                     51.0                461.7
            8    119     662.34  RNGB  Pilot Ro   69.9   85.0   94.0                    77.8                     44.9                506.4
            8    120    4384.33  RNGB  Pilot Ro   69.9   85.0   94.0                    77.8                     44.9                506.4
            8    121    1552.94  RNGB  Pilot Ro   69.9   85.0   94.0                    77.8                     44.9                506.4
            8    122    3331.74  RNGB  Gwin       69.9   85.0   94.0                    38.2                      9.4                184.3
            8    123    6556.10  RNGB  Gwin       69.9   85.0   94.0                    38.2                      9.4                184.3
            8    124   16015.16  RNGB  Gwin       69.9   85.0   94.0                    38.2                      9.4                184.3
            9    125    7560.20  FRSE  Tolo       51.2   70.0   85.7                    26.2                     75.6                566.5
            9    126    3406.96  FRSE  Tolo       51.2   70.0   85.7                   155.4                     92.0                747.6
            9    127    5296.77  FRSE  Tolo       51.2   70.0   85.7                   155.4                     92.0                747.6
            9    128    2417.58  FRSE  Tolo       51.2   70.0   85.7                   155.4                     92.0                747.6
            9    129   15381.55  RNGB  Tolo       51.2   70.0   85.7                    26.2                     75.6                566.5
            9    130    7267.11  RNGB  Gwin       51.2   70.0   85.7                    38.2                      9.4                184.3
            9    131    1572.88  RNGB  Gwin       51.2   70.0   85.7                    38.2                      9.4                184.3
            9    132    1852.58  RNGB  Tolo       51.2   70.0   85.7                   155.4                     92.0                747.6
            9    133    2763.94  RNGB  Tolo       51.2   70.0   85.7                   155.4                     92.0                747.6
            9    134    4037.89  RNGB  Tolo       51.2   70.0   85.7                   155.4                     92.0                747.6
           10    135    1176.57  WWHT  Walla Wa   51.2   70.0   85.7                    82.5                     57.0                501.5
           10    136     209.56  WWHT  Walla Wa   51.2   70.0   85.7                    82.5                     57.0                501.5
           10    137    5754.71  WWHT  Pilot Ro   51.2   70.0   85.7                    77.8                     44.9                506.4
           10    138    1543.16  WWHT  Hermisto   51.2   70.0   85.7                   115.8                     76.0                624.2
           10    139     300.24  WWHT  Hermisto   51.2   70.0   85.7                   115.8                     76.0                624.2
           10    140     124.30  AGRL  Walla Wa   51.2   70.0   85.7                    82.5                     57.0                501.5
           10    141     989.27  AGRL  Walla Wa   51.2   70.0   85.7                    82.5                     57.0                501.5
           10    142    5142.39  AGRL  Pilot Ro   51.2   70.0   85.7                    77.8                     44.9                506.4
           10    143    1300.01  AGRL  Hermisto   51.2   70.0   85.7                   115.8                     76.0                624.2
           10    144     183.37  AGRL  Hermisto   51.2   70.0   85.7                   115.8                     76.0                624.2
           10    145    4348.03  FRSE  Tolo       51.2   70.0   85.7                    26.2                     75.6                566.5
           10    146     836.51  FRSE  Tolo       51.2   70.0   85.7                   155.4                     92.0                747.6
           10    147    1404.91  FRSE  Tolo       51.2   70.0   85.7                   155.4                     92.0                747.6
           10    148    1103.10  FRSE  Tolo       51.2   70.0   85.7                   155.4                     92.0                747.6
           10    149    9785.46  RNGB  Tolo       51.2   70.0   85.7                    26.2                     75.6                566.5
           10    150    3171.74  RNGB  Pilot Ro   51.2   70.0   85.7                    77.8                     44.9                506.4
           10    151    1463.39  RNGB  Pilot Ro   51.2   70.0   85.7                    77.8                     44.9                506.4
           10    152    6581.48  RNGB  Gwin       51.2   70.0   85.7                    38.2                      9.4                184.3
           10    153    1191.20  RNGB  Gwin       51.2   70.0   85.7                    38.2                      9.4                184.3
           10    154    2778.93  RNGB  Gwin       51.2   70.0   85.7                    38.2                      9.4                184.3
           10    155    1171.97  RNGB  Tolo       51.2   70.0   85.7                   155.4                     92.0                747.6
           10    156    1583.19  RNGB  Tolo       51.2   70.0   85.7                   155.4                     92.0                747.6
           10    157    1029.47  RNGB  Tolo       51.2   70.0   85.7                   155.4                     92.0                747.6
           11    158    2623.26  WWHT  Walla Wa   51.2   70.0   85.7                    82.5                     57.0                501.5
           11    159   14262.43  WWHT  Walla Wa   51.2   70.0   85.7                    82.5                     57.0                501.5
           11    160   12177.11  WWHT  Athena     51.2   70.0   85.7                   162.9                     82.5                682.4
           11    161   12695.05  AGRL  Walla Wa   51.2   70.0   85.7                    82.5                     57.0                501.5
           11    162    2439.90  AGRL  Walla Wa   51.2   70.0   85.7                    82.5                     57.0                501.5
           11    163    6539.30  AGRL  Athena     51.2   70.0   85.7                   162.9                     82.5                682.4
           12    164     836.62  FRSE  Angelpea   51.2   70.0   85.7                    13.1                     27.7                849.0
           12    165    1062.52  FRSE  Angelpea   51.2   70.0   85.7                    13.1                     27.7                849.0
           12    166    4021.37  FRSE  Angelpea   51.2   70.0   85.7                    13.1                     27.7                849.0
           12    167   15570.49  FRSE  Tolo       51.2   70.0   85.7                    26.2                     75.6                566.5
           12    168    3210.24  FRSE  Tolo       51.2   70.0   85.7                   155.4                     92.0                747.6
           12    169    3615.74  FRSE  Tolo       51.2   70.0   85.7                   155.4                     92.0                747.6
           12    170    4104.50  FRSE  Tolo       51.2   70.0   85.7                   155.4                     92.0                747.6
           12    171     966.11  RNGB  Angelpea   51.2   70.0   85.7                    13.1                     27.7                849.0
           12    172     229.04  RNGB  Angelpea   51.2   70.0   85.7                    13.1                     27.7                849.0
           12    173     184.55  RNGB  Angelpea   51.2   70.0   85.7                    13.1                     27.7                849.0
           12    174    9363.80  RNGB  Tolo       51.2   70.0   85.7                    26.2                     75.6                566.5
           12    175     771.27  RNGB  Tolo       51.2   70.0   85.7                   155.4                     92.0                747.6
           12    176    1258.28  RNGB  Tolo       51.2   70.0   85.7                   155.4                     92.0                747.6
           12    177     957.65  RNGB  Tolo       51.2   70.0   85.7                   155.4                     92.0                747.6
           13    178    4996.17  FRSE  Angelpea   63.0   80.0   91.5                    13.1                     27.7                849.0
           13    179    2776.84  FRSE  Angelpea   63.0   80.0   91.5                    13.1                     27.7                849.0
           13    180    2528.21  FRSE  Angelpea   63.0   80.0   91.5                    13.1                     27.7                849.0
           13    181   16370.72  FRSE  Tolo       63.0   80.0   91.5                    26.2                     75.6                566.5
           13    182     436.16  RNGB  Angelpea   63.0   80.0   91.5                    13.1                     27.7                849.0
           13    183     332.43  RNGB  Angelpea   63.0   80.0   91.5                    13.1                     27.7                849.0
           13    184     773.17  RNGB  Angelpea   63.0   80.0   91.5                    13.1                     27.7                849.0
           13    185    6871.20  RNGB  Tolo       63.0   80.0   91.5                    26.2                     75.6                566.5

         HRU Input Summary Table 2:
          Sub   HRU   Area(ha)         SoilName Hydgrp MaxRtDpth(mm) Albedo USLE_K USLE_P USLE_LS ProfileAWC(mm) IniSoilH2O(mm)
            1      1    5972.10 Quincy             A          1300.00   0.23   0.17   1.00    0.33    152.000          6.807
            1      2    3283.72 Shano              B          1300.00   0.23   0.55   1.00    0.70    313.500         14.040
            1      3     450.24 Shano              B          1300.00   0.23   0.55   1.00    2.07    313.500         14.040
            1      4    2250.16 Ritzville          B           910.00   0.10   0.49   1.00    0.93    182.000          8.151
            1      5     730.12 Ritzville          B           910.00   0.10   0.49   1.00    1.96    182.000          8.151
            1      6    1921.04 Bakeoven           D           360.00   0.23   0.37   1.00    2.00     23.100          1.035
            1      7    3000.00 Bakeoven           D           360.00   0.23   0.37   1.00    1.08     23.100          1.035
            1      8    3001.78 Quincy             A          1520.00   0.23   0.17   1.00    0.35    152.000          6.807
            1      9    3263.81 Shano              B          1650.00   0.23   0.55   1.00    0.85    313.500         14.040
            1     10     649.06 Shano              B          1650.00   0.23   0.55   1.00    1.96    313.500         14.040
            1     11    2669.12 Bakeoven           D           360.00   0.23   0.37   1.00    2.14     23.100          1.035
            1     12    2869.97 Bakeoven           D           360.00   0.23   0.37   1.00    1.08     23.100          1.035
            1     13    1386.99 Bakeoven           D           360.00   0.23   0.37   1.00    3.42     23.100          1.035
            1     14   14696.63 Quincy             A          1520.00   0.23   0.17   1.00    0.30    152.000          6.807
            1     15     853.86 Shano              B          1650.00   0.23   0.55   1.00    2.02    313.500         14.040
            1     16    2651.82 Shano              B          1650.00   0.23   0.55   1.00    0.80    313.500         14.040
            2     17    6030.03 Ritzville          B           910.00   0.10   0.49   1.00    0.46    182.000         13.536
            2     18     197.49 Bakeoven           D           360.00   0.23   0.37   1.00    3.09     23.100          1.718
            2     19     579.03 Bakeoven           D           360.00   0.23   0.37   1.00    2.17     23.100          1.718
            2     20     395.67 Bakeoven           D           360.00   0.23   0.37   1.00    1.15     23.100          1.718
            2     21    3573.49 Warden             B          1300.00   0.30   0.55   1.00    0.38    291.200         21.658
            2     22    7241.91 Ritzville          B           910.00   0.10   0.49   1.00    0.38    182.000         13.536
            2     23     525.68 Bakeoven           D           360.00   0.23   0.37   1.00    1.15     23.100          1.718
            2     24     873.23 Bakeoven           D           360.00   0.23   0.37   1.00    2.24     23.100          1.718
            2     25     419.09 Bakeoven           D           360.00   0.23   0.37   1.00    3.21     23.100          1.718
            2     26    2842.09 Warden             B          1520.00   0.30   0.55   1.00    0.38    291.200         21.658
            2     27     795.78 Ritzville          B           910.00   0.10   0.49   1.00    2.07    182.000         13.536
            2     28    1912.31 Ritzville          B           910.00   0.10   0.49   1.00    0.93    182.000         13.536
            2     29    1327.49 Bakeoven           D           360.00   0.23   0.37   1.00    1.05     23.100          1.718
            2     30    2643.21 Bakeoven           D           360.00   0.23   0.37   1.00    2.36     23.100          1.718
            2     31    3992.81 Bakeoven           D           360.00   0.23   0.37   1.00    4.14     23.100          1.718
            2     32    1702.11 Morrow             C          1220.00   0.23   0.37   1.00    3.64    196.500         14.615
            2     33    1738.58 Morrow             C          1220.00   0.23   0.37   1.00    2.29    196.500         14.615
            2     34    1129.31 Morrow             C          1220.00   0.23   0.37   1.00    1.05    196.500         14.615
            2     35     999.72 Warden             B          1520.00   0.30   0.55   1.00    2.00    291.200         21.658
            2     36    4391.29 Warden             B          1520.00   0.30   0.55   1.00    0.65    291.200         21.658
            3     37    1484.49 Bakeoven           D           360.00   0.23   0.37   1.00    1.08     23.100          1.718
            3     38    2558.93 Bakeoven           D           360.00   0.23   0.37   1.00    2.34     23.100          1.718
            3     39    5201.96 Bakeoven           D           360.00   0.23   0.37   1.00    4.57     23.100          1.718
            3     40    1321.11 Morrow             C          1220.00   0.23   0.37   1.00    0.96    196.500         14.615
            3     41    2313.26 Morrow             C          1220.00   0.23   0.37   1.00    2.39    196.500         14.615
            3     42    7910.70 Morrow             C          1220.00   0.23   0.37   1.00    5.01    196.500         14.615
            3     43    1811.25 Gwin               D           430.00   0.16   0.37   1.00    1.00     32.500          2.417
            3     44    3397.30 Gwin               D           430.00   0.16   0.37   1.00    2.36     32.500          2.417
            3     45    6813.88 Gwin               D           430.00   0.16   0.37   1.00    4.45     32.500          2.417
            4     46   11015.16 Morrow             C          1220.00   0.23   0.37   1.00    0.82    196.500         15.728
            4     47   27514.38 Morrow             C          1220.00   0.23   0.37   1.00    4.66    196.500         15.728
            4     48   11919.45 Morrow             C          1220.00   0.23   0.37   1.00    2.36    196.500         15.728
            4     49    8751.73 Gwin               D           430.00   0.16   0.37   1.00    2.31     32.500          2.601
            4     50   17129.45 Gwin               D           430.00   0.16   0.37   1.00    4.98     32.500          2.601
            4     51    7306.85 Gwin               D           430.00   0.16   0.37   1.00    0.87     32.500          2.601
            5     52     415.25 Ritzville          B           910.00   0.10   0.49   1.00    1.98    182.000          8.151
            5     53    1839.64 Ritzville          B           910.00   0.10   0.49   1.00    0.90    182.000          8.151
            5     54    1256.19 Bakeoven           D           360.00   0.23   0.37   1.00    1.96     23.100          1.035
            5     55    2284.94 Bakeoven           D           360.00   0.23   0.37   1.00    1.05     23.100          1.035
            5     56    1806.34 Morrow             C          1220.00   0.23   0.37   1.00    0.82    196.500          8.800
            5     57     542.39 Morrow             C          1220.00   0.23   0.37   1.00    1.93    196.500          8.800
            5     58    1529.51 Shano              B          1650.00   0.23   0.55   1.00    0.90    313.500         14.040
            5     59     334.76 Shano              B          1650.00   0.23   0.55   1.00    2.02    313.500         14.040
            5     60    2525.38 Ritzville          B           910.00   0.10   0.49   1.00    2.21    182.000          8.151
            5     61    2732.58 Ritzville          B           910.00   0.10   0.49   1.00    4.50    182.000          8.151
            5     62    2874.22 Ritzville          B           910.00   0.10   0.49   1.00    0.96    182.000          8.151
            5     63    9117.39 Bakeoven           D           360.00   0.23   0.37   1.00    1.10     23.100          1.035
            5     64   10055.34 Bakeoven           D           360.00   0.23   0.37   1.00    2.17     23.100          1.035
            5     65    7402.50 Bakeoven           D           360.00   0.23   0.37   1.00    4.19     23.100          1.035
            5     66    2432.17 Morrow             C          1220.00   0.23   0.37   1.00    2.14    196.500          8.800
            5     67    4711.68 Morrow             C          1220.00   0.23   0.37   1.00    0.80    196.500          8.800
            5     68    1650.38 Morrow             C          1220.00   0.23   0.37   1.00    3.88    196.500          8.800
            6     69    3052.59 Ritzville          B           910.00   0.10   0.49   1.00    0.54    182.000          8.151
            6     70    4655.12 Walla Walla        B          1140.00   0.10   0.43   1.00    0.65    216.600          9.700
            6     71    1223.34 Quincy             A          1300.00   0.23   0.17   1.00    0.54    152.000          6.807
            6     72     145.45 Quincy             A          1300.00   0.23   0.17   1.00    1.98    152.000          6.807
            6     73     271.43 Shano              B          1300.00   0.23   0.55   1.00    2.02    313.500         14.040
            6     74    1563.14 Shano              B          1300.00   0.23   0.55   1.00    0.63    313.500         14.040
            6     75    5175.58 Ritzville          B           910.00   0.10   0.49   1.00    0.60    182.000          8.151
            6     76     490.58 Walla Walla        B          1140.00   0.10   0.43   1.00    1.93    216.600          9.700
            6     77    3169.15 Walla Walla        B          1140.00   0.10   0.43   1.00    0.75    216.600          9.700
            6     78     235.06 Shano              B          1650.00   0.23   0.55   1.00    2.00    313.500         14.040
            6     79    1493.38 Shano              B          1650.00   0.23   0.55   1.00    0.63    313.500         14.040
            6     80     582.69 Ritzville          B           910.00   0.10   0.49   1.00    2.05    182.000          8.151
            6     81    4184.57 Ritzville          B           910.00   0.10   0.49   1.00    0.63    182.000          8.151
            6     82     261.35 Walla Walla        B          1140.00   0.10   0.43   1.00    2.05    216.600          9.700
            6     83     837.40 Walla Walla        B          1140.00   0.10   0.43   1.00    0.82    216.600          9.700
            6     84    1454.88 Quincy             A          1520.00   0.23   0.17   1.00    0.33    152.000          6.807
            7     85    1187.90 Ritzville          B           910.00   0.10   0.49   1.00    0.98    182.000         11.166
            7     86    1202.79 Ritzville          B           910.00   0.10   0.49   1.00    2.17    182.000         11.166
            7     87     616.55 Ritzville          B           910.00   0.10   0.49   1.00    3.50    182.000         11.166
            7     88    8202.26 Walla Walla        B          1140.00   0.10   0.43   1.00    0.89    216.600         13.288
            7     89    3761.22 Walla Walla        B          1140.00   0.10   0.43   1.00    2.00    216.600         13.288
            7     90     559.09 Shano              B          1300.00   0.23   0.55   1.00    2.07    313.500         19.233
            7     91    1606.56 Shano              B          1300.00   0.23   0.55   1.00    0.93    313.500         19.233
            7     92     769.71 Ritzville          B           910.00   0.10   0.49   1.00    3.71    182.000         11.166
            7     93    1253.72 Ritzville          B           910.00   0.10   0.49   1.00    2.17    182.000         11.166
            7     94    1249.04 Ritzville          B           910.00   0.10   0.49   1.00    1.03    182.000         11.166
            7     95    9195.54 Walla Walla        B          1140.00   0.10   0.43   1.00    0.91    216.600         13.288
            7     96    4476.03 Walla Walla        B          1140.00   0.10   0.43   1.00    2.02    216.600         13.288
            7     97    1472.73 Shano              B          1650.00   0.23   0.55   1.00    0.78    313.500         19.233
            7     98     468.15 Shano              B          1650.00   0.23   0.55   1.00    2.05    313.500         19.233
            7     99    1406.75 Ritzville          B           910.00   0.10   0.49   1.00    4.30    182.000         11.166
            7    100    1650.73 Ritzville          B           910.00   0.10   0.49   1.00    2.19    182.000         11.166
            7    101    1880.12 Ritzville          B           910.00   0.10   0.49   1.00    0.96    182.000         11.166
            7    102     644.08 Walla Walla        B          1140.00   0.10   0.43   1.00    3.73    216.600         13.288
            7    103    1369.31 Walla Walla        B          1140.00   0.10   0.43   1.00    2.09    216.600         13.288
            7    104    2173.99 Walla Walla        B          1140.00   0.10   0.43   1.00    0.93    216.600         13.288
            7    105     714.48 Quincy             A          1520.00   0.23   0.17   1.00    2.09    152.000          9.325
            7    106    2088.61 Quincy             A          1520.00   0.23   0.17   1.00    0.72    152.000          9.325
            7    107    1065.42 Shano              B          1650.00   0.23   0.55   1.00    2.17    313.500         19.233
            7    108    2132.61 Shano              B          1650.00   0.23   0.55   1.00    0.78    313.500         19.233
            7    109     766.55 Shano              B          1650.00   0.23   0.55   1.00    4.08    313.500         19.233
            8    110    1180.41 Tolo               B           840.00   0.10   0.43   1.00    2.44     75.600          6.051
            8    111    8696.98 Tolo               B           840.00   0.10   0.43   1.00    7.62     75.600          6.051
            8    112    2229.05 Tolo               B          1520.00   0.23   0.43   1.00    0.89     92.000          7.364
            8    113    1863.06 Tolo               B          1520.00   0.23   0.43   1.00    2.21     92.000          7.364
            8    114    3627.21 Tolo               B          1520.00   0.23   0.43   1.00    5.95     92.000          7.364
            8    115    8296.91 Tolo               B           840.00   0.10   0.43   1.00    7.11     75.600          6.051
            8    116    7895.47 Morrow             C          1220.00   0.23   0.37   1.00    0.80     51.000          4.082
            8    117    2796.67 Morrow             C          1220.00   0.23   0.37   1.00    3.94     51.000          4.082
            8    118    4569.93 Morrow             C          1220.00   0.23   0.37   1.00    2.14     51.000          4.082
            8    119     662.34 Pilot Rock         C          1520.00   0.23   0.43   1.00    4.12     44.900          3.594
            8    120    4384.33 Pilot Rock         C          1520.00   0.23   0.43   1.00    0.78     44.900          3.594
            8    121    1552.94 Pilot Rock         C          1520.00   0.23   0.43   1.00    2.02     44.900          3.594
            8    122    3331.74 Gwin               D           430.00   0.16   0.37   1.00    0.93      9.400          0.752
            8    123    6556.10 Gwin               D           430.00   0.16   0.37   1.00    2.39      9.400          0.752
            8    124   16015.16 Gwin               D           430.00   0.16   0.37   1.00    5.03      9.400          0.752
            9    125    7560.20 Tolo               B           840.00   0.10   0.43   1.00   10.22     75.600         27.586
            9    126    3406.96 Tolo               B          1520.00   0.23   0.43   1.00    6.80     92.000         33.570
            9    127    5296.77 Tolo               B          1520.00   0.23   0.43   1.00    0.78     92.000         33.570
            9    128    2417.58 Tolo               B          1520.00   0.23   0.43   1.00    2.09     92.000         33.570
            9    129   15381.55 Tolo               B           840.00   0.10   0.43   1.00    8.30     75.600         27.586
            9    130    7267.11 Gwin               D           430.00   0.16   0.37   1.00    6.12      9.400          3.430
            9    131    1572.88 Gwin               D           430.00   0.16   0.37   1.00    2.41      9.400          3.430
            9    132    1852.58 Tolo               B          1520.00   0.23   0.43   1.00    2.12     92.000         33.570
            9    133    2763.94 Tolo               B          1520.00   0.23   0.43   1.00    6.57     92.000         33.570
            9    134    4037.89 Tolo               B          1520.00   0.23   0.43   1.00    0.80     92.000         33.570
           10    135    1176.57 Walla Walla        B          1140.00   0.10   0.43   1.00    0.52     57.000          5.905
           10    136     209.56 Walla Walla        B          1140.00   0.10   0.43   1.00    2.02     57.000          5.905
           10    137    5754.71 Pilot Rock         C          1300.00   0.23   0.43   1.00    0.58     44.900          4.651
           10    138    1543.16 Hermiston          B          1300.00   0.23   0.37   1.00    0.54     76.000          7.873
           10    139     300.24 Hermiston          B          1300.00   0.23   0.37   1.00    2.07     76.000          7.873
           10    140     124.30 Walla Walla        B          1140.00   0.10   0.43   1.00    2.05     57.000          5.905
           10    141     989.27 Walla Walla        B          1140.00   0.10   0.43   1.00    0.40     57.000          5.905
           10    142    5142.39 Pilot Rock         C          1520.00   0.23   0.43   1.00    0.58     44.900          4.651
           10    143    1300.01 Hermiston          B          1520.00   0.23   0.37   1.00    0.42     76.000          7.873
           10    144     183.37 Hermiston          B          1520.00   0.23   0.37   1.00    2.14     76.000          7.873
           10    145    4348.03 Tolo               B           840.00   0.10   0.43   1.00    9.36     75.600          7.832
           10    146     836.51 Tolo               B          1520.00   0.23   0.43   1.00    2.19     92.000          9.531
           10    147    1404.91 Tolo               B          1520.00   0.23   0.43   1.00    5.97     92.000          9.531
           10    148    1103.10 Tolo               B          1520.00   0.23   0.43   1.00    0.84     92.000          9.531
           10    149    9785.46 Tolo               B           840.00   0.10   0.43   1.00    8.17     75.600          7.832
           10    150    3171.74 Pilot Rock         C          1520.00   0.23   0.43   1.00    0.78     44.900          4.651
           10    151    1463.39 Pilot Rock         C          1520.00   0.23   0.43   1.00    2.07     44.900          4.651
           10    152    6581.48 Gwin               D           430.00   0.16   0.37   1.00    5.51      9.400          0.974
           10    153    1191.20 Gwin               D           430.00   0.16   0.37   1.00    1.20      9.400          0.974
           10    154    2778.93 Gwin               D           430.00   0.16   0.37   1.00    2.36      9.400          0.974
           10    155    1171.97 Tolo               B          1520.00   0.23   0.43   1.00    0.89     92.000          9.531
           10    156    1583.19 Tolo               B          1520.00   0.23   0.43   1.00    6.00     92.000          9.531
           10    157    1029.47 Tolo               B          1520.00   0.23   0.43   1.00    2.21     92.000          9.531
           11    158    2623.26 Walla Walla        B          1140.00   0.10   0.43   1.00    1.96     57.000          5.905
           11    159   14262.43 Walla Walla        B          1140.00   0.10   0.43   1.00    0.82     57.000          5.905
           11    160   12177.11 Athena             B          1300.00   0.16   0.37   1.00    0.63     82.500          8.547
           11    161   12695.05 Walla Walla        B          1140.00   0.10   0.43   1.00    0.85     57.000          5.905
           11    162    2439.90 Walla Walla        B          1140.00   0.10   0.43   1.00    1.93     57.000          5.905
           11    163    6539.30 Athena             B          1650.00   0.16   0.37   1.00    0.65     82.500          8.547
           12    164     836.62 Angelpeak          B          1570.00   0.10   0.37   1.00    1.00     27.700         10.107
           12    165    1062.52 Angelpeak          B          1570.00   0.10   0.37   1.00    2.26     27.700         10.107
           12    166    4021.37 Angelpeak          B          1570.00   0.10   0.37   1.00    8.36     27.700         10.107
           12    167   15570.49 Tolo               B           840.00   0.10   0.43   1.00   10.59     75.600         27.586
           12    168    3210.24 Tolo               B          1520.00   0.23   0.43   1.00    2.19     92.000         33.570
           12    169    3615.74 Tolo               B          1520.00   0.23   0.43   1.00    5.78     92.000         33.570
           12    170    4104.50 Tolo               B          1520.00   0.23   0.43   1.00    0.84     92.000         33.570
           12    171     966.11 Angelpeak          B          1570.00   0.10   0.37   1.00    8.96     27.700         10.107
           12    172     229.04 Angelpeak          B          1570.00   0.10   0.37   1.00    0.82     27.700         10.107
           12    173     184.55 Angelpeak          B          1570.00   0.10   0.37   1.00    2.21     27.700         10.107
           12    174    9363.80 Tolo               B           840.00   0.10   0.43   1.00   10.51     75.600         27.586
           12    175     771.27 Tolo               B          1520.00   0.23   0.43   1.00    2.17     92.000         33.570
           12    176    1258.28 Tolo               B          1520.00   0.23   0.43   1.00    0.80     92.000         33.570
           12    177     957.65 Tolo               B          1520.00   0.23   0.43   1.00    6.62     92.000         33.570
           13    178    4996.17 Angelpeak          B          1570.00   0.10   0.37   1.00    6.77     27.700          6.188
           13    179    2776.84 Angelpeak          B          1570.00   0.10   0.37   1.00    0.89     27.700          6.188
           13    180    2528.21 Angelpeak          B          1570.00   0.10   0.37   1.00    2.24     27.700          6.188
           13    181   16370.72 Tolo               B           840.00   0.10   0.43   1.00   11.21     75.600         16.890
           13    182     436.16 Angelpeak          B          1570.00   0.10   0.37   1.00    0.80     27.700          6.188
           13    183     332.43 Angelpeak          B          1570.00   0.10   0.37   1.00    2.19     27.700          6.188
           13    184     773.17 Angelpeak          B          1570.00   0.10   0.37   1.00    7.99     27.700          6.188
           13    185    6871.20 Tolo               B           840.00   0.10   0.43   1.00   10.75     75.600         16.890

         HRU Input Summary Table 3:
          Sub   HRU   Area(ha) Urban Irrig DrainTiles Pothole Pstcide Biomix Septic
            1      1    5972.10                                          0.20 x
            1      2    3283.72                                          0.20 x
            1      3     450.24                                          0.20 x
            1      4    2250.16                                          0.20 x
            1      5     730.12                                          0.20 x
            1      6    1921.04                                          0.20 x
            1      7    3000.00                                          0.20 x
            1      8    3001.78                                          0.20 x
            1      9    3263.81                                          0.20 x
            1     10     649.06                                          0.20 x
            1     11    2669.12                                          0.20 x
            1     12    2869.97                                          0.20 x
            1     13    1386.99                                          0.20 x
            1     14   14696.63                                          0.20 x
            1     15     853.86                                          0.20 x
            1     16    2651.82                                          0.20 x
            2     17    6030.03                                          0.20 x
            2     18     197.49                                          0.20 x
            2     19     579.03                                          0.20 x
            2     20     395.67                                          0.20 x
            2     21    3573.49                                          0.20 x
            2     22    7241.91                                          0.20 x
            2     23     525.68                                          0.20 x
            2     24     873.23                                          0.20 x
            2     25     419.09                                          0.20 x
            2     26    2842.09                                          0.20 x
            2     27     795.78                                          0.20 x
            2     28    1912.31                                          0.20 x
            2     29    1327.49                                          0.20 x
            2     30    2643.21                                          0.20 x
            2     31    3992.81                                          0.20 x
            2     32    1702.11                                          0.20 x
            2     33    1738.58                                          0.20 x
            2     34    1129.31                                          0.20 x
            2     35     999.72                                          0.20 x
            2     36    4391.29                                          0.20 x
            3     37    1484.49                                          0.20 x
            3     38    2558.93                                          0.20 x
            3     39    5201.96                                          0.20 x
            3     40    1321.11                                          0.20 x
            3     41    2313.26                                          0.20 x
            3     42    7910.70                                          0.20 x
            3     43    1811.25                                          0.20 x
            3     44    3397.30                                          0.20 x
            3     45    6813.88                                          0.20 x
            4     46   11015.16                                          0.20 x
            4     47   27514.38                                          0.20 x
            4     48   11919.45                                          0.20 x
            4     49    8751.73                                          0.20 x
            4     50   17129.45                                          0.20 x
            4     51    7306.85                                          0.20 x
            5     52     415.25                                          0.20 x
            5     53    1839.64                                          0.20 x
            5     54    1256.19                                          0.20 x
            5     55    2284.94                                          0.20 x
            5     56    1806.34                                          0.20 x
            5     57     542.39                                          0.20 x
            5     58    1529.51                                          0.20 x
            5     59     334.76                                          0.20 x
            5     60    2525.38                                          0.20 x
            5     61    2732.58                                          0.20 x
            5     62    2874.22                                          0.20 x
            5     63    9117.39                                          0.20 x
            5     64   10055.34                                          0.20 x
            5     65    7402.50                                          0.20 x
            5     66    2432.17                                          0.20 x
            5     67    4711.68                                          0.20 x
            5     68    1650.38                                          0.20 x
            6     69    3052.59                                          0.20 x
            6     70    4655.12                                          0.20 x
            6     71    1223.34                                          0.20 x
            6     72     145.45                                          0.20 x
            6     73     271.43                                          0.20 x
            6     74    1563.14                                          0.20 x
            6     75    5175.58                                          0.20 x
            6     76     490.58                                          0.20 x
            6     77    3169.15                                          0.20 x
            6     78     235.06                                          0.20 x
            6     79    1493.38                                          0.20 x
            6     80     582.69                                          0.20 x
            6     81    4184.57                                          0.20 x
            6     82     261.35                                          0.20 x
            6     83     837.40                                          0.20 x
            6     84    1454.88                                          0.20 x
            7     85    1187.90                                          0.20 x
            7     86    1202.79                                          0.20 x
            7     87     616.55                                          0.20 x
            7     88    8202.26                                          0.20 x
            7     89    3761.22                                          0.20 x
            7     90     559.09                                          0.20 x
            7     91    1606.56                                          0.20 x
            7     92     769.71                                          0.20 x
            7     93    1253.72                                          0.20 x
            7     94    1249.04                                          0.20 x
            7     95    9195.54                                          0.20 x
            7     96    4476.03                                          0.20 x
            7     97    1472.73                                          0.20 x
            7     98     468.15                                          0.20 x
            7     99    1406.75                                          0.20 x
            7    100    1650.73                                          0.20 x
            7    101    1880.12                                          0.20 x
            7    102     644.08                                          0.20 x
            7    103    1369.31                                          0.20 x
            7    104    2173.99                                          0.20 x
            7    105     714.48                                          0.20 x
            7    106    2088.61                                          0.20 x
            7    107    1065.42                                          0.20 x
            7    108    2132.61                                          0.20 x
            7    109     766.55                                          0.20 x
            8    110    1180.41                                          0.20 x
            8    111    8696.98                                          0.20 x
            8    112    2229.05                                          0.20 x
            8    113    1863.06                                          0.20 x
            8    114    3627.21                                          0.20 x
            8    115    8296.91                                          0.20 x
            8    116    7895.47                                          0.20 x
            8    117    2796.67                                          0.20 x
            8    118    4569.93                                          0.20 x
            8    119     662.34                                          0.20 x
            8    120    4384.33                                          0.20 x
            8    121    1552.94                                          0.20 x
            8    122    3331.74                                          0.20 x
            8    123    6556.10                                          0.20 x
            8    124   16015.16                                          0.20 x
            9    125    7560.20                                          0.20 x
            9    126    3406.96                                          0.20 x
            9    127    5296.77                                          0.20 x
            9    128    2417.58                                          0.20 x
            9    129   15381.55                                          0.20 x
            9    130    7267.11                                          0.20 x
            9    131    1572.88                                          0.20 x
            9    132    1852.58                                          0.20 x
            9    133    2763.94                                          0.20 x
            9    134    4037.89                                          0.20 x
           10    135    1176.57                                          0.20 x
           10    136     209.56                                          0.20 x
           10    137    5754.71                                          0.20 x
           10    138    1543.16                                          0.20 x
[...]
            2     32    1702.11        31.000         0.048   1000.000   0.020      750.000  0.050    0.000     0.000
            2     33    1738.58        31.000         0.048   1000.000   0.020      750.000  0.050    0.000     0.000
            2     34    1129.31        31.000         0.048   1000.000   0.020      750.000  0.050    0.000     0.000
            2     35     999.72        31.000         0.048   1000.000   0.020      750.000  0.050    0.000     0.000
            2     36    4391.29        31.000         0.048   1000.000   0.020      750.000  0.050    0.000     0.000
            3     37    1484.49        31.000         0.048   1000.000   0.020      750.000  0.050    0.000     0.000
            3     38    2558.93        31.000         0.048   1000.000   0.020      750.000  0.050    0.000     0.000
            3     39    5201.96        31.000         0.048   1000.000   0.020      750.000  0.050    0.000     0.000
            3     40    1321.11        31.000         0.048   1000.000   0.020      750.000  0.050    0.000     0.000
            3     41    2313.26        31.000         0.048   1000.000   0.020      750.000  0.050    0.000     0.000
            3     42    7910.70        31.000         0.048   1000.000   0.020      750.000  0.050    0.000     0.000
            3     43    1811.25        31.000         0.048   1000.000   0.020      750.000  0.050    0.000     0.000
            3     44    3397.30        31.000         0.048   1000.000   0.020      750.000  0.050    0.000     0.000
            3     45    6813.88        31.000         0.048   1000.000   0.020      750.000  0.050    0.000     0.000
            4     46   11015.16        31.000         0.048   1000.000   0.020      750.000  0.050    0.000     0.000
            4     47   27514.38        31.000         0.048   1000.000   0.020      750.000  0.050    0.000     0.000
            4     48   11919.45        31.000         0.048   1000.000   0.020      750.000  0.050    0.000     0.000
            4     49    8751.73        31.000         0.048   1000.000   0.020      750.000  0.050    0.000     0.000
            4     50   17129.45        31.000         0.048   1000.000   0.020      750.000  0.050    0.000     0.000
            4     51    7306.85        31.000         0.048   1000.000   0.020      750.000  0.050    0.000     0.000
            5     52     415.25        31.000         0.048   1000.000   0.020      750.000  0.050    0.000     0.000
            5     53    1839.64        31.000         0.048   1000.000   0.020      750.000  0.050    0.000     0.000
            5     54    1256.19        31.000         0.048   1000.000   0.020      750.000  0.050    0.000     0.000
            5     55    2284.94        31.000         0.048   1000.000   0.020      750.000  0.050    0.000     0.000
            5     56    1806.34        31.000         0.048   1000.000   0.020      750.000  0.050    0.000     0.000
            5     57     542.39        31.000         0.048   1000.000   0.020      750.000  0.050    0.000     0.000
            5     58    1529.51        31.000         0.048   1000.000   0.020      750.000  0.050    0.000     0.000
            5     59     334.76        31.000         0.048   1000.000   0.020      750.000  0.050    0.000     0.000
            5     60    2525.38        31.000         0.048   1000.000   0.020      750.000  0.050    0.000     0.000
            5     61    2732.58        31.000         0.048   1000.000   0.020      750.000  0.050    0.000     0.000
            5     62    2874.22        31.000         0.048   1000.000   0.020      750.000  0.050    0.000     0.000
            5     63    9117.39        31.000         0.048   1000.000   0.020      750.000  0.050    0.000     0.000
            5     64   10055.34        31.000         0.048   1000.000   0.020      750.000  0.050    0.000     0.000
            5     65    7402.50        31.000         0.048   1000.000   0.020      750.000  0.050    0.000     0.000
            5     66    2432.17        31.000         0.048   1000.000   0.020      750.000  0.050    0.000     0.000
            5     67    4711.68        31.000         0.048   1000.000   0.020      750.000  0.050    0.000     0.000
            5     68    1650.38        31.000         0.048   1000.000   0.020      750.000  0.050    0.000     0.000
            6     69    3052.59        31.000         0.048   1000.000   0.020      750.000  0.050    0.000     0.000
            6     70    4655.12        31.000         0.048   1000.000   0.020      750.000  0.050    0.000     0.000
            6     71    1223.34        31.000         0.048   1000.000   0.020      750.000  0.050    0.000     0.000
            6     72     145.45        31.000         0.048   1000.000   0.020      750.000  0.050    0.000     0.000
            6     73     271.43        31.000         0.048   1000.000   0.020      750.000  0.050    0.000     0.000
            6     74    1563.14        31.000         0.048   1000.000   0.020      750.000  0.050    0.000     0.000
            6     75    5175.58        31.000         0.048   1000.000   0.020      750.000  0.050    0.000     0.000
            6     76     490.58        31.000         0.048   1000.000   0.020      750.000  0.050    0.000     0.000
            6     77    3169.15        31.000         0.048   1000.000   0.020      750.000  0.050    0.000     0.000
            6     78     235.06        31.000         0.048   1000.000   0.020      750.000  0.050    0.000     0.000
            6     79    1493.38        31.000         0.048   1000.000   0.020      750.000  0.050    0.000     0.000
            6     80     582.69        31.000         0.048   1000.000   0.020      750.000  0.050    0.000     0.000
            6     81    4184.57        31.000         0.048   1000.000   0.020      750.000  0.050    0.000     0.000
            6     82     261.35        31.000         0.048   1000.000   0.020      750.000  0.050    0.000     0.000
            6     83     837.40        31.000         0.048   1000.000   0.020      750.000  0.050    0.000     0.000
            6     84    1454.88        31.000         0.048   1000.000   0.020      750.000  0.050    0.000     0.000
            7     85    1187.90        31.000         0.048   1000.000   0.020      750.000  0.050    0.000     0.000
            7     86    1202.79        31.000         0.048   1000.000   0.020      750.000  0.050    0.000     0.000
            7     87     616.55        31.000         0.048   1000.000   0.020      750.000  0.050    0.000     0.000
            7     88    8202.26        31.000         0.048   1000.000   0.020      750.000  0.050    0.000     0.000
            7     89    3761.22        31.000         0.048   1000.000   0.020      750.000  0.050    0.000     0.000
            7     90     559.09        31.000         0.048   1000.000   0.020      750.000  0.050    0.000     0.000
            7     91    1606.56        31.000         0.048   1000.000   0.020      750.000  0.050    0.000     0.000
            7     92     769.71        31.000         0.048   1000.000   0.020      750.000  0.050    0.000     0.000
            7     93    1253.72        31.000         0.048   1000.000   0.020      750.000  0.050    0.000     0.000
            7     94    1249.04        31.000         0.048   1000.000   0.020      750.000  0.050    0.000     0.000
            7     95    9195.54        31.000         0.048   1000.000   0.020      750.000  0.050    0.000     0.000
            7     96    4476.03        31.000         0.048   1000.000   0.020      750.000  0.050    0.000     0.000
            7     97    1472.73        31.000         0.048   1000.000   0.020      750.000  0.050    0.000     0.000
            7     98     468.15        31.000         0.048   1000.000   0.020      750.000  0.050    0.000     0.000
            7     99    1406.75        31.000         0.048   1000.000   0.020      750.000  0.050    0.000     0.000
            7    100    1650.73        31.000         0.048   1000.000   0.020      750.000  0.050    0.000     0.000
            7    101    1880.12        31.000         0.048   1000.000   0.020      750.000  0.050    0.000     0.000
            7    102     644.08        31.000         0.048   1000.000   0.020      750.000  0.050    0.000     0.000
            7    103    1369.31        31.000         0.048   1000.000   0.020      750.000  0.050    0.000     0.000
            7    104    2173.99        31.000         0.048   1000.000   0.020      750.000  0.050    0.000     0.000
            7    105     714.48        31.000         0.048   1000.000   0.020      750.000  0.050    0.000     0.000
            7    106    2088.61        31.000         0.048   1000.000   0.020      750.000  0.050    0.000     0.000
            7    107    1065.42        31.000         0.048   1000.000   0.020      750.000  0.050    0.000     0.000
            7    108    2132.61        31.000         0.048   1000.000   0.020      750.000  0.050    0.000     0.000
            7    109     766.55        31.000         0.048   1000.000   0.020      750.000  0.050    0.000     0.000
            8    110    1180.41        31.000         0.048   1000.000   0.020      750.000  0.050    0.000     0.000
            8    111    8696.98        31.000         0.048   1000.000   0.020      750.000  0.050    0.000     0.000
            8    112    2229.05        31.000         0.048   1000.000   0.020      750.000  0.050    0.000     0.000
            8    113    1863.06        31.000         0.048   1000.000   0.020      750.000  0.050    0.000     0.000
            8    114    3627.21        31.000         0.048   1000.000   0.020      750.000  0.050    0.000     0.000
            8    115    8296.91        31.000         0.048   1000.000   0.020      750.000  0.050    0.000     0.000
            8    116    7895.47        31.000         0.048   1000.000   0.020      750.000  0.050    0.000     0.000
            8    117    2796.67        31.000         0.048   1000.000   0.020      750.000  0.050    0.000     0.000
            8    118    4569.93        31.000         0.048   1000.000   0.020      750.000  0.050    0.000     0.000
            8    119     662.34        31.000         0.048   1000.000   0.020      750.000  0.050    0.000     0.000
            8    120    4384.33        31.000         0.048   1000.000   0.020      750.000  0.050    0.000     0.000
            8    121    1552.94        31.000         0.048   1000.000   0.020      750.000  0.050    0.000     0.000
            8    122    3331.74        31.000         0.048   1000.000   0.020      750.000  0.050    0.000     0.000
            8    123    6556.10        31.000         0.048   1000.000   0.020      750.000  0.050    0.000     0.000
            8    124   16015.16        31.000         0.048   1000.000   0.020      750.000  0.050    0.000     0.000
            9    125    7560.20        31.000         0.025   1000.000   0.045      750.000  0.050    0.000     0.000
            9    126    3406.96        31.000         0.025   1000.000   0.045      750.000  0.050    0.000     0.000
            9    127    5296.77        31.000         0.025   1000.000   0.045      750.000  0.050    0.000     0.000
            9    128    2417.58        31.000         0.025   1000.000   0.045      750.000  0.050    0.000     0.000
            9    129   15381.55        31.000         0.025   1000.000   0.045      750.000  0.050    0.000     0.000
            9    130    7267.11        31.000         0.025   1000.000   0.045      750.000  0.050    0.000     0.000
            9    131    1572.88        31.000         0.025   1000.000   0.045      750.000  0.050    0.000     0.000
            9    132    1852.58        31.000         0.025   1000.000   0.045      750.000  0.050    0.000     0.000
            9    133    2763.94        31.000         0.025   1000.000   0.045      750.000  0.050    0.000     0.000
            9    134    4037.89        31.000         0.025   1000.000   0.045      750.000  0.050    0.000     0.000
           10    135    1176.57        31.000         0.025   1000.000   0.045      750.000  0.050    0.000     0.000
           10    136     209.56        31.000         0.025   1000.000   0.045      750.000  0.050    0.000     0.000
           10    137    5754.71        31.000         0.025   1000.000   0.045      750.000  0.050    0.000     0.000
           10    138    1543.16        31.000         0.025   1000.000   0.045      750.000  0.050    0.000     0.000
           10    139     300.24        31.000         0.025   1000.000   0.045      750.000  0.050    0.000     0.000
           10    140     124.30        31.000         0.025   1000.000   0.045      750.000  0.050    0.000     0.000
           10    141     989.27        31.000         0.025   1000.000   0.045      750.000  0.050    0.000     0.000
           10    142    5142.39        31.000         0.025   1000.000   0.045      750.000  0.050    0.000     0.000
           10    143    1300.01        31.000         0.025   1000.000   0.045      750.000  0.050    0.000     0.000
           10    144     183.37        31.000         0.025   1000.000   0.045      750.000  0.050    0.000     0.000
           10    145    4348.03        31.000         0.025   1000.000   0.045      750.000  0.050    0.000     0.000
           10    146     836.51        31.000         0.025   1000.000   0.045      750.000  0.050    0.000     0.000
           10    147    1404.91        31.000         0.025   1000.000   0.045      750.000  0.050    0.000     0.000
           10    148    1103.10        31.000         0.025   1000.000   0.045      750.000  0.050    0.000     0.000
           10    149    9785.46        31.000         0.025   1000.000   0.045      750.000  0.050    0.000     0.000
           10    150    3171.74        31.000         0.025   1000.000   0.045      750.000  0.050    0.000     0.000
           10    151    1463.39        31.000         0.025   1000.000   0.045      750.000  0.050    0.000     0.000
           10    152    6581.48        31.000         0.025   1000.000   0.045      750.000  0.050    0.000     0.000
           10    153    1191.20        31.000         0.025   1000.000   0.045      750.000  0.050    0.000     0.000
           10    154    2778.93        31.000         0.025   1000.000   0.045      750.000  0.050    0.000     0.000
           10    155    1171.97        31.000         0.025   1000.000   0.045      750.000  0.050    0.000     0.000
           10    156    1583.19        31.000         0.025   1000.000   0.045      750.000  0.050    0.000     0.000
           10    157    1029.47        31.000         0.025   1000.000   0.045      750.000  0.050    0.000     0.000
           11    158    2623.26        31.000         0.025   1000.000   0.045      750.000  0.050    0.000     0.000
           11    159   14262.43        31.000         0.025   1000.000   0.045      750.000  0.050    0.000     0.000
           11    160   12177.11        31.000         0.025   1000.000   0.045      750.000  0.050    0.000     0.000
           11    161   12695.05        31.000         0.025   1000.000   0.045      750.000  0.050    0.000     0.000
           11    162    2439.90        31.000         0.025   1000.000   0.045      750.000  0.050    0.000     0.000
           11    163    6539.30        31.000         0.025   1000.000   0.045      750.000  0.050    0.000     0.000
           12    164     836.62        31.000         0.045   1000.000   0.045      750.000  0.050    0.000     0.000
           12    165    1062.52        31.000         0.045   1000.000   0.045      750.000  0.050    0.000     0.000
           12    166    4021.37        31.000         0.045   1000.000   0.045      750.000  0.050    0.000     0.000
           12    167   15570.49        31.000         0.045   1000.000   0.045      750.000  0.050    0.000     0.000
           12    168    3210.24        31.000         0.045   1000.000   0.045      750.000  0.050    0.000     0.000
           12    169    3615.74        31.000         0.045   1000.000   0.045      750.000  0.050    0.000     0.000
           12    170    4104.50        31.000         0.045   1000.000   0.045      750.000  0.050    0.000     0.000
           12    171     966.11        31.000         0.045   1000.000   0.045      750.000  0.050    0.000     0.000
           12    172     229.04        31.000         0.045   1000.000   0.045      750.000  0.050    0.000     0.000
           12    173     184.55        31.000         0.045   1000.000   0.045      750.000  0.050    0.000     0.000
           12    174    9363.80        31.000         0.045   1000.000   0.045      750.000  0.050    0.000     0.000
           12    175     771.27        31.000         0.045   1000.000   0.045      750.000  0.050    0.000     0.000
           12    176    1258.28        31.000         0.045   1000.000   0.045      750.000  0.050    0.000     0.000
           12    177     957.65        31.000         0.045   1000.000   0.045      750.000  0.050    0.000     0.000
           13    178    4996.17        31.000         0.025   1000.000   0.045      750.000  0.050    0.000     0.000
           13    179    2776.84        31.000         0.025   1000.000   0.045      750.000  0.050    0.000     0.000
           13    180    2528.21        31.000         0.025   1000.000   0.045      750.000  0.050    0.000     0.000
           13    181   16370.72        31.000         0.025   1000.000   0.045      750.000  0.050    0.000     0.000
           13    182     436.16        31.000         0.025   1000.000   0.045      750.000  0.050    0.000     0.000
           13    183     332.43        31.000         0.025   1000.000   0.045      750.000  0.050    0.000     0.000
           13    184     773.17        31.000         0.025   1000.000   0.045      750.000  0.050    0.000     0.000
           13    185    6871.20        31.000         0.025   1000.000   0.045      750.000  0.050    0.000     0.000

         Tributary/Main Channel Characteristics
              |--------------Tributary--------------------|---------------------Main---------------------------|
          Sub  Length(km) Slope Width(m) Cond(mm/hr)     N Length(km) Slope Width(m) Depth(m) Cond(mm/hr)     N
            1       10.63 0.010    53.48      0.0000 0.014      10.63 0.010   251.15     4.37      0.0000 0.014
            2        7.88 0.001    49.28      0.0000 0.014       7.88 0.001    49.28     1.48      0.0000 0.014
            3       27.77 0.006    41.71      0.0000 0.014      27.77 0.006   107.82     2.48      0.0000 0.014
            4       82.42 0.015    73.11      0.0000 0.014      82.42 0.015    73.11     1.92      0.0000 0.014
            5       42.84 0.003    55.92      0.0000 0.014      42.84 0.003   176.67     3.45      0.0000 0.014
            6       11.23 0.004    38.56      0.0000 0.014      11.23 0.004    38.56     1.25      0.0000 0.014
            7        9.38 0.003    54.93      0.0000 0.014       9.38 0.003    54.93     1.59      0.0000 0.014
            8       26.01 0.008    67.75      0.0000 0.014      26.01 0.008    67.75     1.82      0.0000 0.014
            9       62.36 0.018    54.70      0.0000 0.014      62.36 0.018    54.70     1.58      0.0000 0.014
           10       35.58 0.007    55.71      0.0000 0.014      35.58 0.007   136.50     2.91      0.0000 0.014
           11       54.67 0.014    54.18      0.0000 0.014      54.67 0.014    54.18     1.57      0.0000 0.014
           12       58.51 0.013    51.19      0.0000 0.014      58.51 0.013    51.19     1.51      0.0000 0.014
           13       17.49 0.010    43.43      0.0000 0.014      17.49 0.010    43.43     1.36      0.0000 0.014
