1
    SWAT Dec 23 2016    VER 2016/Rev 664                                                                 0/ 0/   0      0: 0: 0

    General Input/Output section (file.cio):                                        
    4/30/2018 12:00:00 AM ARCGIS-SWAT interface AV                                  
                                                                                    


       SUB      GIS  MON   AREAkm2  PRECIPmm SNOMELTmm     PETmm      ETmm      SWmm    PERCmm    SURQmm    GW_Qmm    WYLDmm  SYLDt/ha ORGNkg/ha ORGPkg/haNSURQkg/ha SOLPkg/ha SEDPkg/ha LAT Q(mm)LATNO3kg/hGWNO3kg/haCHOLAmic/LCBODU mg/L DOXQ mg/L TNO3kg/ha   QTILEmm TVAPkg/ha
BIGSUB   1        0    1.49654E+03    51.697     1.800    17.984    11.974    77.286     7.236     0.000     0.000     0.773     0.000     0.000     0.000     0.000     0.000     0.000     0.773     0.016     0.000 .00000E+00 0.000E+00 0.000E+00 0.000E+00 0.000E+00 0.000E+00
BIGSUB   2        0    1.43327E+03    51.680     1.800    18.148    12.404    73.706     6.990     0.010     0.000     1.225     0.001     0.002     0.000     0.000     0.000     0.000     1.198     0.026     0.000 .00000E+00 0.000E+00 0.000E+00 0.000E+00 0.000E+00 0.000E+00
BIGSUB   3        0    1.32812E+03    51.701    10.600    18.519    12.278    40.173    12.869     0.000     0.000     5.567     0.000     0.000     0.000     0.000     0.000     0.000     5.539     0.046     0.000 .00000E+00 0.000E+00 0.000E+00 0.000E+00 0.000E+00 0.000E+00
BIGSUB   4        0    1.83628E+03    51.705    10.600    17.835    11.817    52.473     6.311     0.000     0.000     5.438     0.000     0.000     0.000     0.000     0.000     0.000     5.428     0.044     0.000 .00000E+00 0.000E+00 0.000E+00 0.000E+00 0.000E+00 0.000E+00
BIGSUB   5        0    1.53492E+03    51.718     1.800    17.909    12.063    47.500    16.186     0.014     0.000     1.879     0.001     0.002     0.000     0.000     0.000     0.000     1.826     0.018     0.000 .00000E+00 0.000E+00 0.000E+00 0.000E+00 0.000E+00 0.000E+00
BIGSUB   6        0    1.28785E+03    54.871     2.000     9.063     8.263   161.039     4.435     0.000     0.000     0.444     0.000     0.000     0.000     0.000     0.000     0.000     0.438     0.009     0.000 .00000E+00 0.000E+00 0.000E+00 0.000E+00 0.000E+00 0.000E+00
BIGSUB   7        0    1.51917E+03    57.603    24.307     6.277     5.520   212.074    13.134     0.050     0.170     1.951     0.048     0.042     0.005     0.000     0.000     0.008     1.713     0.023     0.000 .00000E+00 0.000E+00 0.000E+00 0.000E+00 0.000E+00 0.000E+00
BIGSUB   8        0    1.73656E+03    51.701    10.600    17.820    11.903    37.252     9.599     1.847     0.488     8.782     0.772     0.847     0.104     0.001     0.000     0.134     6.401     0.080     0.000 .00000E+00 0.000E+00 0.000E+00 0.000E+00 0.000E+00 0.000E+00
BIGSUB   9        0    1.51556E+03    89.880    56.577     1.468     1.225    71.626    58.526     1.820    25.653    52.745     3.203     2.171     0.266     0.001     0.000     0.234    24.368     0.194     0.017 .00000E+00 0.000E+00 0.000E+00 0.000E+00 0.000E+00 0.000E+00
BIGSUB  10        0    1.53154E+03    59.338    26.017     5.481     4.576    55.934    35.755     0.157     8.617    21.578     0.325     0.253     0.031     0.002     0.000     0.028    12.356     0.160     0.003 .00000E+00 0.000E+00 0.000E+00 0.000E+00 0.000E+00 0.000E+00
BIGSUB  11        0    1.50741E+03    59.313    26.017     5.468     4.499    67.339    49.092     0.154    14.885    16.114     0.043     0.095     0.011     0.008     0.000     0.012     0.406     0.008     0.013 .00000E+00 0.000E+00 0.000E+00 0.000E+00 0.000E+00 0.000E+00
BIGSUB  12        0    1.46168E+03    89.846    56.577     1.424     1.326    74.254    54.794     1.653    29.347    58.874     3.199     1.650     0.202     0.001     0.000     0.169    27.059     0.211     0.017 .00000E+00 0.000E+00 0.000E+00 0.000E+00 0.000E+00 0.000E+00
BIGSUB  13        0    1.35104E+03    83.271     6.400     3.420     3.300    60.138    42.972     3.756     8.253    39.829     7.430     2.094     0.259     0.002     0.000     0.210    27.390     0.237     0.003 .00000E+00 0.000E+00 0.000E+00 0.000E+00 0.000E+00 0.000E+00
BIGSUB   1        0    2.49654E+03    10.099     0.000    37.932    16.809    69.803     0.657     0.000     0.748     1.189     0.000     0.000     0.000     0.000     0.000     0.000     0.440     0.005     0.000 .00000E+00 0.000E+00 0.000E+00 0.000E+00 0.000E+00 0.000E+00
BIGSUB   2        0    2.43327E+03    10.096     0.000    36.361    18.745    64.178     0.666     0.000     0.758     1.571     0.000     0.000     0.000     0.000     0.000     0.000     0.763     0.019     0.001 .00000E+00 0.000E+00 0.000E+00 0.000E+00 0.000E+00 0.000E+00
BIGSUB   3        0    2.32812E+03    10.100     0.900    34.898    18.144    29.632     1.513     0.000     0.969     4.157     0.000     0.000     0.000     0.000     0.000     0.000     3.098     0.056     0.000 .00000E+00 0.000E+00 0.000E+00 0.000E+00 0.000E+00 0.000E+00
BIGSUB   4        0    2.83628E+03    10.101     0.900    35.416    19.539    41.157     0.874     0.000     0.072     3.215     0.000     0.000     0.000     0.000     0.000     0.000     3.101     0.067     0.000 .00000E+00 0.000E+00 0.000E+00 0.000E+00 0.000E+00 0.000E+00
BIGSUB   5        0    2.53492E+03    10.104     0.000    37.883    18.724    37.069     1.491     0.000     1.789     3.100     0.000     0.000     0.000     0.000     0.000     0.000     1.196     0.019     0.001 .00000E+00 0.000E+00 0.000E+00 0.000E+00 0.000E+00 0.000E+00
BIGSUB   6        0    2.28785E+03    18.107     0.000    41.117    27.131   151.882     0.055     0.000     0.207     0.467     0.000     0.000     0.000     0.000     0.000     0.000     0.233     0.003     0.000 .00000E+00 0.000E+00 0.000E+00 0.000E+00 0.000E+00 0.000E+00
BIGSUB   7        0    2.51917E+03    18.099     1.300    30.632    23.021   204.302     2.283     0.000     1.235     2.407     0.000     0.000     0.000     0.000     0.000     0.000     1.085     0.023     0.001 .00000E+00 0.000E+00 0.000E+00 0.000E+00 0.000E+00 0.000E+00
BIGSUB   8        0    2.73656E+03    10.100     0.900    35.401    17.848    27.097     1.333     0.017     2.478     4.970     0.000     0.008     0.001     0.000     0.000     0.001     2.392     0.037     0.001 .00000E+00 0.000E+00 0.000E+00 0.000E+00 0.000E+00 0.000E+00
BIGSUB   9        0    2.51556E+03    18.101     1.300    19.485    11.464    68.541     6.124     0.001    29.699    36.529     0.000     0.000     0.000     0.000     0.000     0.000     5.736     0.027     0.016 .00000E+00 0.000E+00 0.000E+00 0.000E+00 0.000E+00 0.000E+00
BIGSUB  10        0    2.53154E+03    18.106     1.300    31.316    17.792    50.809     3.276     0.000    11.916    16.066     0.000     0.000     0.000     0.000     0.000     0.000     3.587     0.025     0.005 .00000E+00 0.000E+00 0.000E+00 0.000E+00 0.000E+00 0.000E+00
BIGSUB  11        0    2.50741E+03    18.099     1.300    31.245    17.236    63.071     5.036     0.000    20.865    21.998     0.000     0.000     0.000     0.000     0.000     0.000     0.312     0.007     0.018 .00000E+00 0.000E+00 0.000E+00 0.000E+00 0.000E+00 0.000E+00
BIGSUB  12        0    2.46168E+03    18.094     1.300    19.510    13.625    70.160     4.848     0.000    30.894    37.829     0.000     0.000     0.000     0.000     0.000     0.000     5.939     0.028     0.014 .00000E+00 0.000E+00 0.000E+00 0.000E+00 0.000E+00 0.000E+00
BIGSUB  13        0    2.35104E+03    18.090     1.800    22.796    14.671    55.754     3.847     0.032    13.768    19.924     0.041     0.017     0.002     0.000     0.000     0.002     5.542     0.032     0.004 .00000E+00 0.000E+00 0.000E+00 0.000E+00 0.000E+00 0.000E+00
BIGSUB   1        0    3.49654E+03    21.199     0.000    84.946    22.425    68.387     0.000     0.000     1.822     1.997     0.000     0.000     0.000     0.000     0.000     0.000     0.175     0.001     0.000 .00000E+00 0.000E+00 0.000E+00 0.000E+00 0.000E+00 0.000E+00
BIGSUB   2        0    3.43327E+03    21.192     0.000    80.571    25.776    59.293     0.000     0.000     1.683     2.026     0.000     0.000     0.000     0.000     0.000     0.000     0.270     0.003     0.001 .00000E+00 0.000E+00 0.000E+00 0.000E+00 0.000E+00 0.000E+00
BIGSUB   3        0    3.32812E+03    21.201     1.800    79.738    22.846    26.396     0.000     0.000     2.478     3.983     0.000     0.000     0.000     0.000     0.000     0.000     1.368     0.003     0.000 .00000E+00 0.000E+00 0.000E+00 0.000E+00 0.000E+00 0.000E+00
BIGSUB   4        0    3.83628E+03    21.202     1.800    81.041    24.973    35.641     0.000     0.000     0.776     2.347     0.000     0.000     0.000     0.000     0.000     0.000     1.502     0.004     0.000 .00000E+00 0.000E+00 0.000E+00 0.000E+00 0.000E+00 0.000E+00
BIGSUB   5        0    3.53492E+03    21.208     0.000    84.941    23.537    34.271     0.000     0.000     3.906     4.494     0.000     0.000     0.000     0.000     0.000     0.000     0.421     0.002     0.001 .00000E+00 0.000E+00 0.000E+00 0.000E+00 0.000E+00 0.000E+00
BIGSUB   6        0    3.28785E+03    35.513     0.000    71.425    32.775   154.319     0.109     0.000     0.352     0.554     0.000     0.000     0.000     0.000     0.000     0.000     0.159     0.001     0.000 .00000E+00 0.000E+00 0.000E+00 0.000E+00 0.000E+00 0.000E+00
BIGSUB   7        0    3.51917E+03    35.498     1.300    52.546    29.315   205.489     0.182     0.000     1.657     2.388     0.000     0.000     0.000     0.000     0.000     0.000     0.588     0.005     0.001 .00000E+00 0.000E+00 0.000E+00 0.000E+00 0.000E+00 0.000E+00
BIGSUB   8        0    3.73656E+03    21.201     1.800    81.025    21.020    23.933     0.447     0.868     2.626     5.478     1.729     0.741     0.091     0.013     0.000     0.112     1.870     0.012     0.000 .00000E+00 0.000E+00 0.000E+00 0.000E+00 0.000E+00 0.000E+00
BIGSUB   9        0    3.51556E+03    35.501     1.300    42.557    19.350    69.333     5.668     0.105    26.932    33.134     0.257     0.164     0.020     0.000     0.000     0.017     4.901     0.013     0.007 .00000E+00 0.000E+00 0.000E+00 0.000E+00 0.000E+00 0.000E+00
BIGSUB  10        0    3.53154E+03    35.513     1.300    53.468    21.519    51.756     5.038     0.053    12.513    16.683     0.047     0.047     0.006     0.001     0.000     0.005     3.473     0.019     0.003 .00000E+00 0.000E+00 0.000E+00 0.000E+00 0.000E+00 0.000E+00
BIGSUB  11        0    3.50741E+03    35.497     1.300    53.337    21.126    65.108     7.969     0.092    20.833    22.026     0.013     0.036     0.004     0.003     0.000     0.005     0.166     0.004     0.010 .00000E+00 0.000E+00 0.000E+00 0.000E+00 0.000E+00 0.000E+00
BIGSUB  12        0    3.46168E+03    36.907     1.352    42.889    23.317    71.045     2.789     0.132    22.701    28.932     0.317     0.159     0.019     0.000     0.000     0.017     5.011     0.009     0.005 .00000E+00 0.000E+00 0.000E+00 0.000E+00 0.000E+00 0.000E+00
BIGSUB  13        0    3.35104E+03    36.900     0.000    50.382    23.783    57.652     3.038     1.659    14.346    22.227     2.381     0.673     0.083     0.008     0.000     0.070     5.555     0.014     0.002 .00000E+00 0.000E+00 0.000E+00 0.000E+00 0.000E+00 0.000E+00
BIGSUB   1        0    4.49654E+03     2.930     0.000    90.768    19.215    52.101     0.000     0.000     0.575     0.616     0.000     0.000     0.000     0.000     0.000     0.000     0.041     0.000     0.000 .00000E+00 0.000E+00 0.000E+00 0.000E+00 0.000E+00 0.000E+00
BIGSUB   2        0    4.43327E+03    29.289     0.000    87.280    35.418    52.796     0.000     0.000     0.488     0.891     0.000     0.000     0.000     0.000     0.000     0.000     0.339     0.002     0.000 .00000E+00 0.000E+00 0.000E+00 0.000E+00 0.000E+00 0.000E+00
BIGSUB   3        0    4.32812E+03    29.301     0.000    89.049    28.415    25.353     0.000     0.000     0.640     2.621     0.000     0.000     0.000     0.000     0.000     0.000     1.858     0.004     0.000 .00000E+00 0.000E+00 0.000E+00 0.000E+00 0.000E+00 0.000E+00
BIGSUB   4        0    4.83628E+03    29.303     0.000    91.308    29.219    33.623     0.000     0.000     0.233     2.323     0.000     0.000     0.000     0.000     0.000     0.000     2.027     0.005     0.000 .00000E+00 0.000E+00 0.000E+00 0.000E+00 0.000E+00 0.000E+00
BIGSUB   5        0    4.53492E+03    29.310     0.000    90.998    29.564    33.446     0.000     0.000     1.055     1.732     0.000     0.000     0.000     0.000     0.000     0.000     0.529     0.001     0.000 .00000E+00 0.000E+00 0.000E+00 0.000E+00 0.000E+00 0.000E+00
BIGSUB   6        0    4.28785E+03    70.527     0.000    92.749    58.494   160.044     5.523     0.216     0.326     1.027     0.090     0.114     0.014     0.000     0.000     0.021     0.444     0.015     0.000 .00000E+00 0.000E+00 0.000E+00 0.000E+00 0.000E+00 0.000E+00
BIGSUB   7        0    4.51917E+03    70.495    13.800    71.195    46.399   210.521    19.459     0.714     1.319     4.584     0.421     0.616     0.075     0.001     0.000     0.091     2.405     0.036     0.000 .00000E+00 0.000E+00 0.000E+00 0.000E+00 0.000E+00 0.000E+00
BIGSUB   8        0    4.73656E+03    29.301     0.000    91.299    28.204    22.205     0.077     0.117     0.642     3.454     0.187     0.079     0.010     0.001     0.000     0.013     2.593     0.007     0.000 .00000E+00 0.000E+00 0.000E+00 0.000E+00 0.000E+00 0.000E+00
BIGSUB   9        0    4.51556E+03    70.502    13.800    65.065    30.436    67.087    24.955     5.630    19.185    41.491    13.653     8.301     1.017     0.004     0.001     0.880    15.640     0.072     0.003 .00000E+00 0.000E+00 0.000E+00 0.000E+00 0.000E+00 0.000E+00
BIGSUB  10        0    4.53154E+03    70.525    13.800    72.269    34.582    50.694    24.063     5.152    10.029    27.452     7.340     6.067     0.742     0.008     0.001     0.694    11.682     0.099     0.002 .00000E+00 0.000E+00 0.000E+00 0.000E+00 0.000E+00 0.000E+00
BIGSUB  11        0    4.50741E+03    70.495    13.800    72.063    33.628    62.558    37.220     5.708    17.121    24.069     1.428     3.374     0.408     0.017     0.002     0.449     0.375     0.009     0.008 .00000E+00 0.000E+00 0.000E+00 0.000E+00 0.000E+00 0.000E+00
BIGSUB  12        0    4.46168E+03   133.904    22.497    63.361    36.238    68.823    44.862    28.267    15.919    75.473   110.263    30.873     3.785     0.006     0.003     3.207    30.327     0.153     0.003 .00000E+00 0.000E+00 0.000E+00 0.000E+00 0.000E+00 0.000E+00
BIGSUB  13        0    4.35104E+03   133.877     0.000    74.221    38.632    55.547    25.970    48.453    11.580    83.685   197.261    18.687     2.308     0.052     0.004     1.935    23.047     0.120     0.002 .00000E+00 0.000E+00 0.000E+00 0.000E+00 0.000E+00 0.000E+00
BIGSUB   1        0    5.49654E+03    51.397     0.000    99.506    33.167    68.093     1.621     0.000     0.037     0.564     0.000     0.000     0.000     0.000     0.000     0.000     0.527     0.001     0.000 .00000E+00 0.000E+00 0.000E+00 0.000E+00 0.000E+00 0.000E+00
BIGSUB   2        0    5.43327E+03    51.381     0.000    96.037    40.814    60.494     1.890     0.001     0.061     1.057     0.000     0.000     0.000     0.000     0.000     0.000     0.941     0.006     0.000 .00000E+00 0.000E+00 0.000E+00 0.000E+00 0.000E+00 0.000E+00
BIGSUB   3        0    5.32812E+03    51.401     3.600    95.799    36.475    32.672     2.951     0.000     0.064     4.820     0.000     0.000     0.000     0.000     0.000     0.000     4.650     0.011     0.000 .00000E+00 0.000E+00 0.000E+00 0.000E+00 0.000E+00 0.000E+00
BIGSUB   4        0    5.83628E+03    51.405     3.600    99.667    37.642    41.935     0.742     0.000     0.000     4.781     0.000     0.000     0.000     0.000     0.000     0.000     4.728     0.008     0.000 .00000E+00 0.000E+00 0.000E+00 0.000E+00 0.000E+00 0.000E+00
BIGSUB   5        0    5.53492E+03    51.418     0.000    99.910    38.309    40.151     4.878     0.001     0.153     1.739     0.000     0.000     0.000     0.000     0.000     0.000     1.458     0.006     0.000 .00000E+00 0.000E+00 0.000E+00 0.000E+00 0.000E+00 0.000E+00
BIGSUB   6        0    5.28785E+03    61.523     0.000    89.268    59.145   158.287     3.646     0.064     0.755     1.375     0.019     0.028     0.003     0.000     0.000     0.005     0.484     0.004     0.001 .00000E+00 0.000E+00 0.000E+00 0.000E+00 0.000E+00 0.000E+00
BIGSUB   7        0    5.51917E+03    61.496     5.400    70.428    44.589   213.211    11.906     0.167     3.395     6.332     0.176     0.217     0.026     0.000     0.000     0.033     2.514     0.039     0.002 .00000E+00 0.000E+00 0.000E+00 0.000E+00 0.000E+00 0.000E+00
BIGSUB   8        0    5.73656E+03    51.401     3.600    99.660    37.299    25.902     3.095     1.901     0.153     7.540     3.348     1.399     0.171     0.004     0.000     0.229     5.396     0.014     0.000 .00000E+00 0.000E+00 0.000E+00 0.000E+00 0.000E+00 0.000E+00
BIGSUB   9        0    5.51556E+03    61.502     5.400    70.287    34.507    67.315    13.605     1.921    18.245    32.949     1.798     1.030     0.126     0.002     0.000     0.109    11.762     0.034     0.003 .00000E+00 0.000E+00 0.000E+00 0.000E+00 0.000E+00 0.000E+00
BIGSUB  10        0    5.53154E+03    61.522     5.400    70.799    33.531    51.347    16.640     1.657    12.462    24.158     1.499     1.204     0.147     0.007     0.000     0.139     9.380     0.069     0.004 .00000E+00 0.000E+00 0.000E+00 0.000E+00 0.000E+00 0.000E+00
BIGSUB  11        0    5.50741E+03    61.495     5.400    70.528    32.779    63.023    25.634     2.245    20.813    24.499     0.338     0.921     0.111     0.016     0.001     0.124     0.460     0.010     0.015 .00000E+00 0.000E+00 0.000E+00 0.000E+00 0.000E+00 0.000E+00
BIGSUB  12        0    5.46168E+03   153.697    13.500    71.136    45.127    69.195    46.990    27.467    25.506    88.344    62.848     3.668     0.450     0.009     0.001     0.390    34.261     0.136     0.008 .00000E+00 0.000E+00 0.000E+00 0.000E+00 0.000E+00 0.000E+00
BIGSUB  13        0    5.35104E+03   153.666     0.000    80.358    48.458    55.402    30.610    47.263    14.721    90.418   248.132     5.292     0.650     0.032     0.002     0.539    27.740     0.134     0.003 .00000E+00 0.000E+00 0.000E+00 0.000E+00 0.000E+00 0.000E+00
BIGSUB   1        0    6.49654E+03    87.694     0.000   116.324    58.361    79.686    15.977     0.000     2.510     4.195     0.000     0.000     0.000     0.000     0.000     0.000     1.685     0.017     0.001 .00000E+00 0.000E+00 0.000E+00 0.000E+00 0.000E+00 0.000E+00
BIGSUB   2        0    6.43327E+03    87.667     0.000   110.467    61.357    73.428    10.287     0.108     2.361     5.422     0.012     0.028     0.003     0.000     0.000     0.005     2.875     0.046     0.002 .00000E+00 0.000E+00 0.000E+00 0.000E+00 0.000E+00 0.000E+00
BIGSUB   3        0    6.32812E+03    87.702     0.300   114.897    57.047    28.024    22.591     0.069     3.852    16.673     0.004     0.014     0.002     0.000     0.000     0.002    12.599     0.144     0.001 .00000E+00 0.000E+00 0.000E+00 0.000E+00 0.000E+00 0.000E+00
BIGSUB   4        0    6.83628E+03    87.709     0.300   119.865    63.362    41.922    11.944     0.045     1.393    13.799     0.002     0.009     0.001     0.000     0.000     0.001    12.289     0.167     0.001 .00000E+00 0.000E+00 0.000E+00 0.000E+00 0.000E+00 0.000E+00
BIGSUB   5        0    6.53492E+03    87.731     0.000   116.667    55.429    43.163    24.578     0.172     5.780    10.503     0.016     0.042     0.005     0.000     0.000     0.007     4.365     0.047     0.003 .00000E+00 0.000E+00 0.000E+00 0.000E+00 0.000E+00 0.000E+00
BIGSUB   6        0    6.28785E+03    73.028     0.000   117.202    70.719   140.904    18.370     0.586     1.323     2.834     0.461     0.577     0.071     0.000     0.000     0.094     0.753     0.008     0.001 .00000E+00 0.000E+00 0.000E+00 0.000E+00 0.000E+00 0.000E+00
BIGSUB   7        0    6.51917E+03    72.995     4.600    89.858    51.440   197.167    32.962     1.018    12.146    17.480     0.904     1.176     0.143     0.000     0.000     0.176     3.852     0.071     0.016 .00000E+00 0.000E+00 0.000E+00 0.000E+00 0.000E+00 0.000E+00
BIGSUB   8        0    6.73656E+03    87.702     0.300   119.858    61.723    20.499    10.356    10.725     2.495    23.704    11.247     4.811     0.589     0.009     0.002     0.797    10.372     0.063     0.000 .00000E+00 0.000E+00 0.000E+00 0.000E+00 0.000E+00 0.000E+00
BIGSUB   9        0    6.51556E+03    73.002     4.600    78.610    37.920    54.670    26.119     5.528    19.863    42.787    12.873     4.437     0.543     0.001     0.001     0.485    16.370     0.066     0.005 .00000E+00 0.000E+00 0.000E+00 0.000E+00 0.000E+00 0.000E+00
BIGSUB  10        0    6.53154E+03    73.026     4.600    90.219    37.229    40.619    28.036     5.484    17.506    36.997    13.299     7.569     0.925     0.003     0.001     0.892    13.221     0.125     0.008 .00000E+00 0.000E+00 0.000E+00 0.000E+00 0.000E+00 0.000E+00
BIGSUB  11        0    6.50741E+03    72.994     4.600    89.987    36.086    53.960    39.703     5.699    27.816    35.319     2.533     5.021     0.607     0.006     0.002     0.680     0.636     0.012     0.030 .00000E+00 0.000E+00 0.000E+00 0.000E+00 0.000E+00 0.000E+00
BIGSUB  12        0    6.46168E+03    78.813     4.968    79.444    46.478    52.200    24.047     6.880    36.866    64.296    12.873     0.403     0.049     0.000     0.000     0.042    19.200     0.056     0.014 .00000E+00 0.000E+00 0.000E+00 0.000E+00 0.000E+00 0.000E+00
BIGSUB  13        0    6.35104E+03    78.797    18.360    86.632    44.260    39.860    18.141    15.494    20.757    54.295    35.609     0.412     0.051     0.005     0.000     0.042    17.186     0.079     0.006 .00000E+00 0.000E+00 0.000E+00 0.000E+00 0.000E+00 0.000E+00
BIGSUB   1        0    7.49654E+03     7.500     0.000   144.397    20.770    66.372     0.000     0.000     4.856     5.046     0.000     0.000     0.000     0.000     0.000     0.000     0.189     0.004     0.003 .00000E+00 0.000E+00 0.000E+00 0.000E+00 0.000E+00 0.000E+00
BIGSUB   2        0    7.43327E+03     7.497     0.000   137.748    23.885    56.975     0.000     0.000     4.409     4.812     0.000     0.000     0.000     0.000     0.000     0.000     0.272     0.005     0.002 .00000E+00 0.000E+00 0.000E+00 0.000E+00 0.000E+00 0.000E+00
BIGSUB   3        0    7.32812E+03     7.500     0.000   140.273    20.767    13.834     0.000     0.000     7.814     8.746     0.000     0.000     0.000     0.000     0.000     0.000     0.664     0.007     0.002 .00000E+00 0.000E+00 0.000E+00 0.000E+00 0.000E+00 0.000E+00
BIGSUB   4        0    7.83628E+03     7.501     0.000   144.603    25.518    22.973     0.000     0.000     3.070     3.919     0.000     0.000     0.000     0.000     0.000     0.000     0.715     0.012     0.001 .00000E+00 0.000E+00 0.000E+00 0.000E+00 0.000E+00 0.000E+00
BIGSUB   5        0    7.53492E+03     7.503     0.000   144.727    20.345    30.236     0.000     0.000    10.641    11.371     0.000     0.000     0.000     0.000     0.000     0.000     0.415     0.006     0.004 .00000E+00 0.000E+00 0.000E+00 0.000E+00 0.000E+00 0.000E+00
BIGSUB   6        0    7.28785E+03     0.600     0.000   157.342    38.931   102.588     0.000     0.000     2.393     2.753     0.000     0.000     0.000     0.000     0.000     0.000     0.101     0.001     0.002 .00000E+00 0.000E+00 0.000E+00 0.000E+00 0.000E+00 0.000E+00
BIGSUB   7        0    7.51917E+03     0.600     0.000   120.742    24.032   173.733     0.000     0.000    14.236    15.045     0.000     0.000     0.000     0.000     0.000     0.000     0.190     0.004     0.011 .00000E+00 0.000E+00 0.000E+00 0.000E+00 0.000E+00 0.000E+00
BIGSUB   8        0    7.73656E+03     7.500     0.000   144.593    17.978     8.888     0.000     0.000     3.810     4.635     0.000     0.000     0.000     0.000     0.000     0.000     0.663     0.004     0.000 .00000E+00 0.000E+00 0.000E+00 0.000E+00 0.000E+00 0.000E+00
BIGSUB   9        0    7.51556E+03     0.600     0.000    95.496    23.131    32.139     0.000     0.000    16.191    17.239     0.000     0.000     0.000     0.000     0.000     0.000     0.022     0.000     0.002 .00000E+00 0.000E+00 0.000E+00 0.000E+00 0.000E+00 0.000E+00
BIGSUB  10        0    7.53154E+03     0.600     0.000   118.627    13.292    27.932     0.000     0.000    17.051    17.949     0.000     0.000     0.000     0.000     0.000     0.000     0.036     0.000     0.005 .00000E+00 0.000E+00 0.000E+00 0.000E+00 0.000E+00 0.000E+00
BIGSUB  11        0    7.50741E+03     0.600     0.000   118.345    11.085    43.474     0.000     0.000    27.721    29.136     0.000     0.000     0.000     0.000     0.000     0.000     0.141     0.003     0.017 .00000E+00 0.000E+00 0.000E+00 0.000E+00 0.000E+00 0.000E+00
BIGSUB  12        0    7.46168E+03     0.624     0.000    96.530    28.020    24.795     0.000     0.000    24.072    25.496     0.000     0.000     0.000     0.000     0.000     0.000     0.019     0.000     0.005 .00000E+00 0.000E+00 0.000E+00 0.000E+00 0.000E+00 0.000E+00
BIGSUB  13        0    7.35104E+03     0.624     0.000   108.287    21.559    18.914     0.000     0.000    15.471    16.410     0.000     0.000     0.000     0.000     0.000     0.000     0.028     0.000     0.002 .00000E+00 0.000E+00 0.000E+00 0.000E+00 0.000E+00 0.000E+00
BIGSUB   1        0    8.49654E+03     0.300     0.000   146.252     9.226    57.446     0.000     0.000     2.197     2.221     0.000     0.000     0.000     0.000     0.000     0.000     0.024     0.001     0.001 .00000E+00 0.000E+00 0.000E+00 0.000E+00 0.000E+00 0.000E+00
BIGSUB   2        0    8.43327E+03     0.300     0.000   140.568     9.405    47.867     0.000     0.000     1.747     1.908     0.000     0.000     0.000     0.000     0.000     0.000     0.032     0.000     0.000 .00000E+00 0.000E+00 0.000E+00 0.000E+00 0.000E+00 0.000E+00
BIGSUB   3        0    8.32812E+03     0.300     0.900   144.377     8.830     5.904     0.000     0.000     3.105     3.403     0.000     0.000     0.000     0.000     0.000     0.000     0.031     0.000     0.000 .00000E+00 0.000E+00 0.000E+00 0.000E+00 0.000E+00 0.000E+00
BIGSUB   4        0    8.83628E+03     0.300     0.900   149.406    12.860    11.015     0.000     0.000     1.100     1.267     0.000     0.000     0.000     0.000     0.000     0.000     0.032     0.001     0.000 .00000E+00 0.000E+00 0.000E+00 0.000E+00 0.000E+00 0.000E+00
BIGSUB   5        0    8.53492E+03     0.300     0.000   146.426     9.143    21.396     0.000     0.000     4.368     4.714     0.000     0.000     0.000     0.000     0.000     0.000     0.037     0.001     0.001 .00000E+00 0.000E+00 0.000E+00 0.000E+00 0.000E+00 0.000E+00
BIGSUB   6        0    8.28785E+03     6.654     0.000   135.223    17.539    91.694     0.000     0.000     0.671     0.953     0.000     0.000     0.000     0.000     0.000     0.000     0.043     0.000     0.000 .00000E+00 0.000E+00 0.000E+00 0.000E+00 0.000E+00 0.000E+00
BIGSUB   7        0    8.51917E+03    10.237     4.600    92.127    15.695   162.606     0.000     0.000     5.087     5.698     0.000     0.000     0.000     0.000     0.000     0.000     0.055     0.001     0.002 .00000E+00 0.000E+00 0.000E+00 0.000E+00 0.000E+00 0.000E+00
BIGSUB   8        0    8.73656E+03     0.300     0.900   149.391     6.804     2.971     0.000     0.000     0.728     0.933     0.000     0.000     0.000     0.000     0.000     0.000     0.052     0.000     0.000 .00000E+00 0.000E+00 0.000E+00 0.000E+00 0.000E+00 0.000E+00
BIGSUB   9        0    8.51556E+03    20.181     4.600    65.260    12.071    24.196     0.000     0.000     5.819     7.137     0.000     0.000     0.000     0.000     0.000     0.000     0.472     0.003     0.000 .00000E+00 0.000E+00 0.000E+00 0.000E+00 0.000E+00 0.000E+00
BIGSUB  10        0    8.53154E+03    10.871     4.600    91.342     8.978    23.270     0.000     0.000     4.057     5.081     0.000     0.000     0.000     0.000     0.000     0.000     0.291     0.005     0.001 .00000E+00 0.000E+00 0.000E+00 0.000E+00 0.000E+00 0.000E+00
BIGSUB  11        0    8.50741E+03    10.867     4.600    91.189     6.041    42.020     0.000     0.000    11.044    12.179     0.000     0.000     0.000     0.000     0.000     0.000     0.052     0.001     0.003 .00000E+00 0.000E+00 0.000E+00 0.000E+00 0.000E+00 0.000E+00
BIGSUB  12        0    8.46168E+03    20.174     4.600    65.858    11.389    17.463     0.000     0.000     4.436     6.150     0.000     0.000     0.000     0.000     0.000     0.000     0.539     0.003     0.000 .00000E+00 0.000E+00 0.000E+00 0.000E+00 0.000E+00 0.000E+00
BIGSUB  13        0    8.35104E+03    12.683     0.000    89.554    16.613    12.973     0.000     0.000     6.044     8.787     0.000     0.000     0.000     0.000     0.000     0.000     1.977     0.017     0.000 .00000E+00 0.000E+00 0.000E+00 0.000E+00 0.000E+00 0.000E+00
BIGSUB   1        0    9.49654E+03    25.298     0.000   109.021    19.313    63.161     0.000     0.000     0.095     0.337     0.000     0.000     0.000     0.000     0.000     0.000     0.242     0.001     0.000 .00000E+00 0.000E+00 0.000E+00 0.000E+00 0.000E+00 0.000E+00
BIGSUB   2        0    9.43327E+03    25.290     0.000   104.509    17.329    55.442     0.000     0.000     0.067     0.525     0.000     0.000     0.000     0.000     0.000     0.000     0.354     0.004     0.000 .00000E+00 0.000E+00 0.000E+00 0.000E+00 0.000E+00 0.000E+00
BIGSUB   3        0    9.32812E+03    25.301     0.000   101.182    16.294    12.922     0.000     0.000     0.102     2.229     0.000     0.000     0.000     0.000     0.000     0.000     1.911     0.029     0.000 .00000E+00 0.000E+00 0.000E+00 0.000E+00 0.000E+00 0.000E+00
BIGSUB   4        0    9.83628E+03    25.303     0.000   102.744    16.215    17.958     0.000     0.000     0.031     2.193     0.000     0.000     0.000     0.000     0.000     0.000     2.053     0.038     0.000 .00000E+00 0.000E+00 0.000E+00 0.000E+00 0.000E+00 0.000E+00
BIGSUB   5        0    9.53492E+03    25.309     0.000   108.949    17.547    28.545     0.000     0.000     0.162     0.964     0.000     0.000     0.000     0.000     0.000     0.000     0.554     0.007     0.000 .00000E+00 0.000E+00 0.000E+00 0.000E+00 0.000E+00 0.000E+00
BIGSUB   6        0    9.28785E+03    21.508     0.000    93.960    17.519    95.588     0.000     0.000     0.047     0.322     0.000     0.000     0.000     0.000     0.000     0.000     0.087     0.000     0.000 .00000E+00 0.000E+00 0.000E+00 0.000E+00 0.000E+00 0.000E+00
BIGSUB   7        0    9.51917E+03    21.499     6.938    69.131    21.357   167.833     0.000     0.000     0.580     1.532     0.000     0.000     0.000     0.000     0.000     0.000     0.520     0.001     0.000 .00000E+00 0.000E+00 0.000E+00 0.000E+00 0.000E+00 0.000E+00
BIGSUB   8        0    9.73656E+03    25.301     0.000   102.728    16.281     6.539     1.829     0.846     0.098     3.783     0.286     0.511     0.063     0.000     0.000     0.077     2.716     0.017     0.000 .00000E+00 0.000E+00 0.000E+00 0.000E+00 0.000E+00 0.000E+00
BIGSUB   9        0    9.51556E+03    21.501    16.881    48.858    18.811    34.384     1.900     0.101     0.849     7.662     0.145     0.055     0.007     0.000     0.000     0.006     6.069     0.007     0.000 .00000E+00 0.000E+00 0.000E+00 0.000E+00 0.000E+00 0.000E+00
BIGSUB  10        0    9.53154E+03    21.508     7.567    67.494    17.506    30.142     0.797     0.000     0.256     3.401     0.000     0.000     0.000     0.000     0.000     0.000     2.585     0.011     0.000 .00000E+00 0.000E+00 0.000E+00 0.000E+00 0.000E+00 0.000E+00
BIGSUB  11        0    9.50741E+03    21.498     7.567    67.366    20.150    49.547     0.000     0.000     0.416     1.322     0.000     0.000     0.000     0.000     0.000     0.000     0.081     0.001     0.000 .00000E+00 0.000E+00 0.000E+00 0.000E+00 0.000E+00 0.000E+00
BIGSUB  12        0    9.46168E+03    21.493    16.881    49.266    22.972    25.261     0.009     0.025     0.880     8.057     0.038     0.004     0.000     0.000     0.000     0.000     6.264     0.006     0.000 .00000E+00 0.000E+00 0.000E+00 0.000E+00 0.000E+00 0.000E+00
BIGSUB  13        0    9.35104E+03    21.488     0.000    56.164    17.982    12.959     0.000     0.000     0.280     4.412     0.000     0.000     0.000     0.000     0.000     0.000     3.551     0.006     0.000 .00000E+00 0.000E+00 0.000E+00 0.000E+00 0.000E+00 0.000E+00
BIGSUB   1        0   10.49654E+03    32.598     0.000    59.125    17.630    77.146     0.592     0.000     0.000     0.303     0.000     0.000     0.000     0.000     0.000     0.000     0.303     0.002     0.000 .00000E+00 0.000E+00 0.000E+00 0.000E+00 0.000E+00 0.000E+00
BIGSUB   2        0   10.43327E+03    32.588     0.000    57.964    15.741    71.254     0.475     0.000     0.000     0.526     0.000     0.000     0.000     0.000     0.000     0.000     0.442     0.001     0.000 .00000E+00 0.000E+00 0.000E+00 0.000E+00 0.000E+00 0.000E+00
BIGSUB   3        0   10.32812E+03    32.601     0.000    58.264    15.123    27.305     0.250     0.000     0.000     2.504     0.000     0.000     0.000     0.000     0.000     0.000     2.330     0.004     0.000 .00000E+00 0.000E+00 0.000E+00 0.000E+00 0.000E+00 0.000E+00
BIGSUB   4        0   10.83628E+03    32.603     0.000    58.279    14.396    33.095     0.000     0.000     0.000     2.628     0.000     0.000     0.000     0.000     0.000     0.000     2.540     0.004     0.000 .00000E+00 0.000E+00 0.000E+00 0.000E+00 0.000E+00 0.000E+00
BIGSUB   5        0   10.53492E+03    32.612     0.000    59.019    16.500    42.929     0.853     0.000     0.000     0.889     0.000     0.000     0.000     0.000     0.000     0.000     0.689     0.001     0.000 .00000E+00 0.000E+00 0.000E+00 0.000E+00 0.000E+00 0.000E+00
BIGSUB   6        0   10.28785E+03    50.019     0.000    58.316    15.638   129.603     0.000     0.000     0.000     0.402     0.000     0.000     0.000     0.000     0.000     0.000     0.252     0.003     0.000 .00000E+00 0.000E+00 0.000E+00 0.000E+00 0.000E+00 0.000E+00
BIGSUB   7        0   10.51917E+03    49.997     1.300    44.733    18.048   198.354     0.042     0.000     0.000     1.400     0.000     0.000     0.000     0.000     0.000     0.000     1.056     0.000     0.000 .00000E+00 0.000E+00 0.000E+00 0.000E+00 0.000E+00 0.000E+00
BIGSUB   8        0   10.73656E+03    32.601     0.000    58.262    14.998    18.713     1.766     0.004     0.568     3.901     0.000     0.001     0.000     0.000     0.000     0.000     3.218     0.006     0.000 .00000E+00 0.000E+00 0.000E+00 0.000E+00 0.000E+00 0.000E+00
BIGSUB   9        0   10.51556E+03    50.002     1.300    26.073    12.526    57.240     5.505     0.100     1.027     9.658     0.086     0.046     0.006     0.000     0.000     0.005     8.011     0.004     0.000 .00000E+00 0.000E+00 0.000E+00 0.000E+00 0.000E+00 0.000E+00
BIGSUB  10        0   10.53154E+03    50.018     1.300    43.537    14.995    48.008     9.933     0.142     0.541     7.463     0.082     0.088     0.011     0.000     0.000     0.014     6.326     0.019     0.000 .00000E+00 0.000E+00 0.000E+00 0.000E+00 0.000E+00 0.000E+00
BIGSUB  11        0   10.50741E+03    49.996     1.300    43.466    18.979    65.745    14.099     0.409     0.043     1.261     0.167     0.309     0.038     0.001     0.000     0.042     0.155     0.001     0.000 .00000E+00 0.000E+00 0.000E+00 0.000E+00 0.000E+00 0.000E+00
BIGSUB  12        0   10.46168E+03    49.983     1.300    26.192    14.418    50.128     1.441     0.028     0.093     9.135     0.014     0.003     0.000     0.000     0.000     0.000     8.317     0.002     0.000 .00000E+00 0.000E+00 0.000E+00 0.000E+00 0.000E+00 0.000E+00
BIGSUB  13        0   10.35104E+03    49.973     0.000    28.826    13.010    37.242     2.084     0.416     0.004    10.018     0.341     0.015     0.002     0.000     0.000     0.002     9.141     0.005     0.000 .00000E+00 0.000E+00 0.000E+00 0.000E+00 0.000E+00 0.000E+00
BIGSUB   1        0   11.49654E+03    46.297     2.500    30.231    19.386    96.426     6.738     0.000     1.077     1.995     0.000     0.000     0.000     0.000     0.000     0.000     0.918     0.008     0.001 .00000E+00 0.000E+00 0.000E+00 0.000E+00 0.000E+00 0.000E+00
BIGSUB   2        0   11.43327E+03    46.283     2.500    29.427    19.367    90.680     6.063     0.007     0.910     2.453     0.000     0.001     0.000     0.000     0.000     0.000     1.461     0.006     0.000 .00000E+00 0.000E+00 0.000E+00 0.000E+00 0.000E+00 0.000E+00
BIGSUB   3        0   11.32812E+03    46.301     5.900    29.138    20.010    37.534    10.222     0.000     1.118     7.452     0.000     0.000     0.000     0.000     0.000     0.000     6.187     0.015     0.000 .00000E+00 0.000E+00 0.000E+00 0.000E+00 0.000E+00 0.000E+00
BIGSUB   4        0   11.83628E+03    46.305     5.900    28.154    19.227    50.140     4.423     0.000     0.308     6.342     0.000     0.000     0.000     0.000     0.000     0.000     5.964     0.017     0.000 .00000E+00 0.000E+00 0.000E+00 0.000E+00 0.000E+00 0.000E+00
BIGSUB   5        0   11.53492E+03    46.317     2.500    30.116    20.237    52.927    13.886     0.009     2.026     4.435     0.000     0.001     0.000     0.000     0.000     0.000     2.222     0.004     0.000 .00000E+00 0.000E+00 0.000E+00 0.000E+00 0.000E+00 0.000E+00
BIGSUB   6        0   11.28785E+03    49.519     4.600    29.344    19.937   158.042     0.687     0.000     0.004     0.538     0.000     0.000     0.000     0.000     0.000     0.000     0.425     0.005     0.000 .00000E+00 0.000E+00 0.000E+00 0.000E+00 0.000E+00 0.000E+00
BIGSUB   7        0   11.51917E+03    49.497     1.300    21.169    17.712   217.641    10.276     0.000     0.389     2.799     0.000     0.000     0.000     0.000     0.000     0.000     2.154     0.009     0.000 .00000E+00 0.000E+00 0.000E+00 0.000E+00 0.000E+00 0.000E+00
BIGSUB   8        0   11.73656E+03    46.301     5.900    28.135    21.860    29.600     5.621     1.945     1.883    10.235     1.678     0.913     0.112     0.000     0.000     0.150     6.297     0.027     0.000 .00000E+00 0.000E+00 0.000E+00 0.000E+00 0.000E+00 0.000E+00
BIGSUB   9        0   11.51556E+03    49.502     1.300    10.718     8.303    67.848    18.546     0.001     2.798    15.990     0.001     0.000     0.000     0.000     0.000     0.000    12.754     0.043     0.000 .00000E+00 0.000E+00 0.000E+00 0.000E+00 0.000E+00 0.000E+00
BIGSUB  10        0   11.53154E+03    49.518     1.300    21.918    14.667    53.178    20.428     0.000     3.459    13.637     0.000     0.000     0.000     0.000     0.000     0.000     9.758     0.041     0.000 .00000E+00 0.000E+00 0.000E+00 0.000E+00 0.000E+00 0.000E+00
BIGSUB  11        0   11.50741E+03    49.496     1.300    21.855    16.295    64.947    33.543     0.001     4.882     5.901     0.000     0.000     0.000     0.000     0.000     0.000     0.412     0.003     0.001 .00000E+00 0.000E+00 0.000E+00 0.000E+00 0.000E+00 0.000E+00
BIGSUB  12        0   11.46168E+03    49.483     1.300    10.635     9.279    67.830    11.032     0.000     1.388    14.067     0.000     0.000     0.000     0.000     0.000     0.000    12.151     0.018     0.000 .00000E+00 0.000E+00 0.000E+00 0.000E+00 0.000E+00 0.000E+00
BIGSUB  13        0   11.35104E+03    49.473     0.000    14.025    11.108    53.350    10.651     0.381     1.153    13.932     0.482     0.009     0.001     0.000     0.000     0.001    12.038     0.009     0.000 .00000E+00 0.000E+00 0.000E+00 0.000E+00 0.000E+00 0.000E+00
BIGSUB   1        0   12.49654E+03    71.695     3.000    17.540    13.768   120.723    31.628     0.000     4.265     5.898     0.000     0.000     0.000     0.000     0.000     0.000     1.633     0.022     0.003 .00000E+00 0.000E+00 0.000E+00 0.000E+00 0.000E+00 0.000E+00
BIGSUB   2        0   12.43327E+03    71.673     3.000    16.725    13.800   128.253    16.271     0.588     3.940     7.418     0.100     0.184     0.022     0.000     0.000     0.033     2.768     0.052     0.001 .00000E+00 0.000E+00 0.000E+00 0.000E+00 0.000E+00 0.000E+00
BIGSUB   3        0   12.32812E+03    71.702     6.200    18.109    15.222    50.460    27.133     1.205     6.962    20.689     0.135     0.372     0.045     0.000     0.000     0.058    12.293     0.252     0.001 .00000E+00 0.000E+00 0.000E+00 0.000E+00 0.000E+00 0.000E+00
BIGSUB   4        0   12.83628E+03    71.707     6.200    17.500    15.230    73.513    16.083     0.749     3.206    17.091     0.078     0.271     0.033     0.000     0.000     0.038    13.025     0.375     0.001 .00000E+00 0.000E+00 0.000E+00 0.000E+00 0.000E+00 0.000E+00
BIGSUB   5        0   12.53492E+03    71.726     3.000    17.416    14.485    75.620    28.461     0.916     8.957    14.287     0.106     0.249     0.031     0.000     0.000     0.045     4.134     0.055     0.001 .00000E+00 0.000E+00 0.000E+00 0.000E+00 0.000E+00 0.000E+00
BIGSUB   6        0   12.28785E+03    97.737    10.200    17.663    14.093   193.542    45.796     0.876     3.406     5.525     0.231     0.355     0.044     0.000     0.000     0.058     1.075     0.016     0.003 .00000E+00 0.000E+00 0.000E+00 0.000E+00 0.000E+00 0.000E+00
BIGSUB   7        0   12.51917E+03    97.693     0.000    12.978    12.014   218.826    76.189     1.271    13.594    21.227     1.038     1.259     0.154     0.001     0.000     0.189     5.938     0.082     0.013 .00000E+00 0.000E+00 0.000E+00 0.000E+00 0.000E+00 0.000E+00
BIGSUB   8        0   12.73656E+03    71.702     6.200    17.488    15.670    43.316    18.078    12.801     4.372    27.571    14.689     5.099     0.624     0.007     0.002     0.865    10.236     0.199     0.000 .00000E+00 0.000E+00 0.000E+00 0.000E+00 0.000E+00 0.000E+00
BIGSUB   9        0   12.51556E+03    97.703     0.000     3.421     2.981    70.291    57.957     5.350    11.505    45.462     9.333     2.191     0.268     0.000     0.001     0.246    28.009     0.139     0.003 .00000E+00 0.000E+00 0.000E+00 0.000E+00 0.000E+00 0.000E+00
BIGSUB  10        0   12.53154E+03    97.735     0.000    13.206    10.564    53.709    57.843     5.318    12.595    41.316    10.688     4.244     0.519     0.001     0.001     0.527    22.783     0.149     0.003 .00000E+00 0.000E+00 0.000E+00 0.000E+00 0.000E+00 0.000E+00
BIGSUB  11        0   12.50741E+03    97.692     0.000    13.194    11.123    65.332    79.806     5.267    20.435    27.374     1.681     2.905     0.354     0.005     0.000     0.394     0.753     0.003     0.007 .00000E+00 0.000E+00 0.000E+00 0.000E+00 0.000E+00 0.000E+00
BIGSUB  12        0   12.46168E+03    97.666     0.000     3.303     3.211    72.745    52.798     5.369    11.051    47.444    11.293     0.178     0.022     0.000     0.000     0.018    30.439     0.118     0.002 .00000E+00 0.000E+00 0.000E+00 0.000E+00 0.000E+00 0.000E+00
BIGSUB  13        0   12.35104E+03    97.647     0.000     5.909     5.636    59.032    43.239    13.414     6.278    49.045    35.023     0.220     0.029     0.001     0.000     0.019    28.912     0.173     0.001 .00000E+00 0.000E+00 0.000E+00 0.000E+00 0.000E+00 0.000E+00
BIGSUB   1        0 2010.49654E+03   408.704     7.300   954.026   262.042   120.723    64.449     0.000    18.184    25.135     0.000     0.000     0.000     0.000     0.000     0.000     6.950     0.079     0.009 .00000E+00 0.000E+00 0.000E+00 0.000E+00 0.000E+00 0.000E+00
BIGSUB   2        0 2010.43327E+03   434.936     7.300   915.804   294.040   128.253    42.642     0.714    16.424    29.833     0.114     0.214     0.026     0.000     0.000     0.039    11.715     0.170     0.007 .00000E+00 0.000E+00 0.000E+00 0.000E+00 0.000E+00 0.000E+00
BIGSUB   3        0 2010.32812E+03   435.111    30.200   924.243   271.451    50.460    77.529     1.274    27.104    82.844     0.139     0.386     0.047     0.000     0.000     0.060    52.528     0.570     0.005 .00000E+00 0.000E+00 0.000E+00 0.000E+00 0.000E+00 0.000E+00
BIGSUB   4        0 2010.83628E+03   435.145    30.200   945.820   289.997    73.513    40.377     0.794    10.190    65.343     0.080     0.280     0.034     0.000     0.000     0.040    53.405     0.742     0.003 .00000E+00 0.000E+00 0.000E+00 0.000E+00 0.000E+00 0.000E+00
BIGSUB   5        0 2010.53492E+03   435.256     7.300   954.963   275.883    75.620    90.332     1.112    38.837    60.107     0.124     0.295     0.036     0.000     0.000     0.053    17.846     0.168     0.011 .00000E+00 0.000E+00 0.000E+00 0.000E+00 0.000E+00 0.000E+00
BIGSUB   6        0 2010.28785E+03   539.607    16.800   912.673   380.183   193.542    78.621     1.742     9.485    17.194     0.800     1.074     0.132     0.000     0.000     0.178     4.493     0.065     0.007 .00000E+00 0.000E+00 0.000E+00 0.000E+00 0.000E+00 0.000E+00
BIGSUB   7        0 2010.51917E+03   545.708    64.845   681.815   309.143   218.826   166.433     3.220    53.810    82.841     2.586     3.309     0.403     0.003     0.001     0.497    22.069     0.294     0.046 .00000E+00 0.000E+00 0.000E+00 0.000E+00 0.000E+00 0.000E+00
BIGSUB   8        0 2010.73656E+03   435.112    30.200   945.660   271.588    43.316    52.202    31.071    20.342   104.987    33.936    14.408     1.764     0.034     0.006     2.379    52.207     0.467     0.002 .00000E+00 0.000E+00 0.000E+00 0.000E+00 0.000E+00 0.000E+00
BIGSUB   9        0 2010.51556E+03   587.977   107.058   527.298   212.725    70.291   218.905    20.556   177.765   342.783    41.352    18.397     2.253     0.008     0.002     1.981   134.112     0.602     0.056 .00000E+00 0.000E+00 0.000E+00 0.000E+00 0.000E+00 0.000E+00
BIGSUB  10        0 2010.53154E+03   548.278    67.185   679.676   229.232    53.709   201.808    17.966   111.003   231.780    33.281    19.472     2.380     0.023     0.003     2.301    95.478     0.722     0.035 .00000E+00 0.000E+00 0.000E+00 0.000E+00 0.000E+00 0.000E+00
BIGSUB  11        0 2010.50741E+03   548.042    67.185   678.041   229.027    65.332   292.101    19.575   186.874   221.198     6.204    12.661     1.534     0.057     0.005     1.705     3.950     0.061     0.121 .00000E+00 0.000E+00 0.000E+00 0.000E+00 0.000E+00 0.000E+00
BIGSUB  12        0 2010.46168E+03   750.683   124.274   529.547   255.399    72.745   243.609    69.821   203.153   464.097   200.846    36.937     4.528     0.018     0.004     3.843   179.526     0.740     0.068 .00000E+00 0.000E+00 0.000E+00 0.000E+00 0.000E+00 0.000E+00
BIGSUB  13        0 2010.35104E+03   736.487    26.560   620.574   259.012    59.032   180.552   130.868   112.654   412.981   526.700    27.419     3.385     0.099     0.007     2.818   162.107     0.826     0.024 .00000E+00 0.000E+00 0.000E+00 0.000E+00 0.000E+00 0.000E+00
BIGSUB   1        0    1.49654E+03    21.099     0.000    28.604    18.007   118.825     4.624     0.000     7.476     8.233     0.000     0.000     0.000     0.000     0.000     0.000     0.757     0.009     0.005 .00000E+00 0.000E+00 0.000E+00 0.000E+00 0.000E+00 0.000E+00
BIGSUB   2        0    1.43327E+03    21.092     0.000    28.732    19.608   126.530     2.635     0.000     6.165     7.659     0.000     0.000     0.000     0.000     0.000     0.000     1.281     0.030     0.001 .00000E+00 0.000E+00 0.000E+00 0.000E+00 0.000E+00 0.000E+00
BIGSUB   3        0    1.32812E+03    21.101     0.600    29.454    19.676    46.279     3.481     0.000    12.824    18.053     0.000     0.000     0.000     0.000     0.000     0.000     4.858     0.136     0.002 .00000E+00 0.000E+00 0.000E+00 0.000E+00 0.000E+00 0.000E+00
BIGSUB   4        0    1.83628E+03    21.102     0.600    28.600    20.672    69.721     1.941     0.003     7.125    12.633     0.000     0.001     0.000     0.000     0.000     0.000     5.307     0.196     0.002 .00000E+00 0.000E+00 0.000E+00 0.000E+00 0.000E+00 0.000E+00
BIGSUB   5        0    1.53492E+03    21.108     0.000    28.462    19.107    72.469     4.278     0.005    14.156    16.510     0.000     0.001     0.000     0.000     0.000     0.000     1.918     0.037     0.001 .00000E+00 0.000E+00 0.000E+00 0.000E+00 0.000E+00 0.000E+00
BIGSUB   6        0    1.28785E+03    39.415     0.000    26.389    20.150   195.872    16.455     0.001    13.256    14.442     0.000     0.000     0.000     0.000     0.000     0.000     0.757     0.012     0.019 .00000E+00 0.000E+00 0.000E+00 0.000E+00 0.000E+00 0.000E+00
BIGSUB   7        0    1.51917E+03    39.397     0.000    20.354    16.972   216.579    22.454     0.000    32.198    36.430     0.000     0.000     0.000     0.000     0.000     0.000     3.388     0.044     0.033 .00000E+00 0.000E+00 0.000E+00 0.000E+00 0.000E+00 0.000E+00
BIGSUB   8        0    1.73656E+03    21.101     0.600    28.579    19.947    38.873     2.792     0.536     5.772     9.848     0.477     0.193     0.024     0.003     0.000     0.029     3.284     0.031     0.000 .00000E+00 0.000E+00 0.000E+00 0.000E+00 0.000E+00 0.000E+00
BIGSUB   9        0    1.51556E+03    39.401     0.000     9.298     6.731    69.498    22.142     0.082    23.068    36.477     0.073     0.046     0.006     0.000     0.000     0.005    12.426     0.057     0.006 .00000E+00 0.000E+00 0.000E+00 0.000E+00 0.000E+00 0.000E+00
BIGSUB  10        0    1.53154E+03    39.414     0.000    19.437    13.121    52.348    19.352     0.054    23.463    33.501     0.051     0.031     0.004     0.000     0.000     0.004     9.065     0.049     0.007 .00000E+00 0.000E+00 0.000E+00 0.000E+00 0.000E+00 0.000E+00
BIGSUB  11        0    1.50741E+03    39.397     0.000    19.392    12.664    64.074    27.563     0.163    34.806    36.907     0.008     0.063     0.008     0.002     0.000     0.008     0.604     0.005     0.011 .00000E+00 0.000E+00 0.000E+00 0.000E+00 0.000E+00 0.000E+00
BIGSUB  12        0    1.46168E+03    39.386     0.000     9.144     7.629    71.567    20.554     0.100    24.458    38.838     0.113     0.033     0.004     0.000     0.000     0.003    13.452     0.053     0.004 .00000E+00 0.000E+00 0.000E+00 0.000E+00 0.000E+00 0.000E+00
BIGSUB  13        0    1.35104E+03    39.378     0.000    13.176    10.272    57.162    17.296     1.683    15.314    30.676     1.526     0.462     0.057     0.003     0.000     0.046    13.024     0.077     0.003 .00000E+00 0.000E+00 0.000E+00 0.000E+00 0.000E+00 0.000E+00
BIGSUB   1        0    2.49654E+03    29.598     0.000    38.483    19.902   121.268     6.717     0.000     6.083     6.618     0.000     0.000     0.000     0.000     0.000     0.000     0.536     0.006     0.002 .00000E+00 0.000E+00 0.000E+00 0.000E+00 0.000E+00 0.000E+00
BIGSUB   2        0    2.43327E+03    29.589     0.000    36.859    21.508   129.839     3.933     0.007     4.403     5.468     0.000     0.001     0.000     0.000     0.000     0.000     0.835     0.008     0.000 .00000E+00 0.000E+00 0.000E+00 0.000E+00 0.000E+00 0.000E+00
BIGSUB   3        0    2.32812E+03    29.601     2.100    36.481    20.609    46.826     5.207     0.000     9.280    13.129     0.000     0.000     0.000     0.000     0.000     0.000     3.478     0.027     0.001 .00000E+00 0.000E+00 0.000E+00 0.000E+00 0.000E+00 0.000E+00
BIGSUB   4        0    2.83628E+03    29.603     2.100    36.957    22.762    70.527     2.742     0.000     5.242     8.989     0.000     0.000     0.000     0.000     0.000     0.000     3.545     0.038     0.001 .00000E+00 0.000E+00 0.000E+00 0.000E+00 0.000E+00 0.000E+00
BIGSUB   5        0    2.53492E+03    29.611     0.000    38.422    21.344    73.028     6.450     0.010    10.154    11.830     0.000     0.001     0.000     0.000     0.000     0.000     1.241     0.010     0.000 .00000E+00 0.000E+00 0.000E+00 0.000E+00 0.000E+00 0.000E+00
BIGSUB   6        0    2.28785E+03    27.110     0.000    40.863    22.951   191.944     7.811     0.000    13.622    14.519     0.000     0.000     0.000     0.000     0.000     0.000     0.359     0.005     0.013 .00000E+00 0.000E+00 0.000E+00 0.000E+00 0.000E+00 0.000E+00
BIGSUB   7        0    2.51917E+03    27.098     0.000    30.757    19.725   212.827     9.899     0.000    27.561    29.899     0.000     0.000     0.000     0.000     0.000     0.000     1.389     0.019     0.019 .00000E+00 0.000E+00 0.000E+00 0.000E+00 0.000E+00 0.000E+00
BIGSUB   8        0    2.73656E+03    29.601     2.100    36.941    20.983    38.432     3.515     2.530     4.169    10.233     2.760     1.480     0.181     0.015     0.001     0.226     3.280     0.023     0.000 .00000E+00 0.000E+00 0.000E+00 0.000E+00 0.000E+00 0.000E+00
BIGSUB   9        0    2.51556E+03    27.101     0.000    19.698    10.734    67.547    11.428     0.272    22.842    30.709     0.369     0.205     0.025     0.000     0.000     0.022     6.651     0.028     0.004 .00000E+00 0.000E+00 0.000E+00 0.000E+00 0.000E+00 0.000E+00
BIGSUB  10        0    2.53154E+03    27.110     0.000    31.450    14.761    49.718     9.940     0.231    22.388    28.387     0.323     0.187     0.023     0.000     0.000     0.022     4.829     0.022     0.004 .00000E+00 0.000E+00 0.000E+00 0.000E+00 0.000E+00 0.000E+00
BIGSUB  11        0    2.50741E+03    27.098     0.000    31.380    14.198    61.671    14.826     0.260    32.408    34.326     0.060     0.129     0.016     0.002     0.000     0.017     0.307     0.004     0.007 .00000E+00 0.000E+00 0.000E+00 0.000E+00 0.000E+00 0.000E+00
BIGSUB  12        0    2.46168E+03    27.091     0.000    19.723    12.692    68.977     9.719     0.276    21.824    29.993     0.425     0.133     0.016     0.000     0.000     0.014     7.034     0.026     0.003 .00000E+00 0.000E+00 0.000E+00 0.000E+00 0.000E+00 0.000E+00
BIGSUB  13        0    2.35104E+03    27.085    10.200    23.514    13.538    54.790     4.719     6.420    16.023    27.956    19.672     4.463     0.555     0.019     0.000     0.454     4.826     0.018     0.002 .00000E+00 0.000E+00 0.000E+00 0.000E+00 0.000E+00 0.000E+00
BIGSUB   1        0    3.49654E+03    46.497     0.000    55.140    37.539   124.416     5.226     0.000     7.252     7.775     0.000     0.000     0.000     0.000     0.000     0.000     0.524     0.004     0.002 .00000E+00 0.000E+00 0.000E+00 0.000E+00 0.000E+00 0.000E+00
BIGSUB   2        0    3.43327E+03    46.482     0.000    53.303    39.140   134.082     2.251     0.000     3.611     4.627     0.000     0.000     0.000     0.000     0.000     0.000     0.769     0.008     0.000 .00000E+00 0.000E+00 0.000E+00 0.000E+00 0.000E+00 0.000E+00
BIGSUB   3        0    3.32812E+03    46.501     8.000    47.869    34.515    49.148     5.201     0.000     7.530    11.792     0.000     0.000     0.000     0.000     0.000     0.000     3.864     0.009     0.000 .00000E+00 0.000E+00 0.000E+00 0.000E+00 0.000E+00 0.000E+00
BIGSUB   4        0    3.83628E+03    46.505     8.000    48.735    36.680    73.483     2.418     0.000     4.122     8.217     0.000     0.000     0.000     0.000     0.000     0.000     3.878     0.010     0.000 .00000E+00 0.000E+00 0.000E+00 0.000E+00 0.000E+00 0.000E+00
BIGSUB   5        0    3.53492E+03    46.517     0.000    55.231    38.822    75.252     4.198     0.000     8.278     9.884     0.000     0.000     0.000     0.000     0.000     0.000     1.149     0.003     0.000 .00000E+00 0.000E+00 0.000E+00 0.000E+00 0.000E+00 0.000E+00
BIGSUB   6        0    3.28785E+03    81.131     0.000    51.820    41.527   202.354    28.276     0.066    13.598    14.985     0.013     0.021     0.003     0.000     0.000     0.003     0.655     0.049     0.009 .00000E+00 0.000E+00 0.000E+00 0.000E+00 0.000E+00 0.000E+00
BIGSUB   7        0    3.51917E+03    81.094     7.400    40.963    34.557   219.320    36.002     0.087    25.006    29.373     0.081     0.096     0.012     0.000     0.000     0.015     3.185     0.040     0.013 .00000E+00 0.000E+00 0.000E+00 0.000E+00 0.000E+00 0.000E+00
BIGSUB   8        0    3.73656E+03    46.501     8.000    48.724    35.955    40.699     2.854     0.584     3.788     9.139     0.396     0.145     0.018     0.004     0.000     0.023     4.495     0.021     0.000 .00000E+00 0.000E+00 0.000E+00 0.000E+00 0.000E+00 0.000E+00
BIGSUB   9        0    3.51556E+03    81.103     7.400    34.571    22.740    69.811    34.707     1.664    23.884    45.102     2.803     1.418     0.174     0.002     0.000     0.151    18.474     0.074     0.004 .00000E+00 0.000E+00 0.000E+00 0.000E+00 0.000E+00 0.000E+00
BIGSUB  10        0    3.53154E+03    81.129     7.400    41.802    28.158    53.698    32.610     1.388    22.669    39.231     1.815     1.010     0.124     0.007     0.000     0.118    14.122     0.080     0.004 .00000E+00 0.000E+00 0.000E+00 0.000E+00 0.000E+00 0.000E+00
BIGSUB  11        0    3.50741E+03    81.094     7.400    41.680    27.216    65.482    47.768     1.610    32.814    36.424     0.303     0.692     0.086     0.021     0.001     0.092     0.484     0.007     0.008 .00000E+00 0.000E+00 0.000E+00 0.000E+00 0.000E+00 0.000E+00
BIGSUB  12        0    3.46168E+03    84.315     7.696    34.850    26.898    72.109    30.688     1.961    21.086    44.429     3.901     1.113     0.139     0.002     0.000     0.115    20.405     0.070     0.002 .00000E+00 0.000E+00 0.000E+00 0.000E+00 0.000E+00 0.000E+00
BIGSUB  13        0    3.35104E+03    84.298     0.000    37.560    28.100    58.533    24.509     7.399    16.048    43.568    13.117     2.048     0.256     0.013     0.000     0.213    19.359     0.093     0.002 .00000E+00 0.000E+00 0.000E+00 0.000E+00 0.000E+00 0.000E+00
BIGSUB   1        0    4.49654E+03     5.330     0.000    80.432    25.084   104.654     0.000     0.000     5.423     5.560     0.000     0.000     0.000     0.000     0.000     0.000     0.137     0.003     0.001 .00000E+00 0.000E+00 0.000E+00 0.000E+00 0.000E+00 0.000E+00
BIGSUB   2        0    4.43327E+03    53.280     0.000    76.776    48.778   133.066     4.308     0.000     2.650     4.019     0.000     0.000     0.000     0.000     0.000     0.000     1.148     0.012     0.000 .00000E+00 0.000E+00 0.000E+00 0.000E+00 0.000E+00 0.000E+00
BIGSUB   3        0    4.32812E+03    53.301     3.800    80.551    43.851    46.809     6.278     0.000     5.829    11.686     0.000     0.000     0.000     0.000     0.000     0.000     5.497     0.018     0.000 .00000E+00 0.000E+00 0.000E+00 0.000E+00 0.000E+00 0.000E+00
BIGSUB   4        0    4.83628E+03    53.305     3.800    82.913    48.372    69.925     2.974     0.000     2.728     8.394     0.000     0.000     0.000     0.000     0.000     0.000     5.473     0.020     0.000 .00000E+00 0.000E+00 0.000E+00 0.000E+00 0.000E+00 0.000E+00
BIGSUB   5        0    4.53492E+03    53.319     0.000    80.694    44.406    74.516     7.822     0.000     6.031     8.154     0.000     0.000     0.000     0.000     0.000     0.000     1.719     0.006     0.000 .00000E+00 0.000E+00 0.000E+00 0.000E+00 0.000E+00 0.000E+00
BIGSUB   6        0    4.28785E+03    45.817     1.500    70.162    49.925   191.554     6.368     0.000    13.278    14.512     0.000     0.000     0.000     0.000     0.000     0.000     0.512     0.045     0.009 .00000E+00 0.000E+00 0.000E+00 0.000E+00 0.000E+00 0.000E+00
BIGSUB   7        0    4.51917E+03    45.797     1.300    56.352    40.823   212.041    10.693     0.000    24.140    27.581     0.000     0.000     0.000     0.000     0.000     0.000     2.327     0.027     0.013 .00000E+00 0.000E+00 0.000E+00 0.000E+00 0.000E+00 0.000E+00
BIGSUB   8        0    4.73656E+03    53.301     3.800    82.905    45.815    35.446     3.983     2.971     2.405    11.271     2.542     0.970     0.119     0.008     0.001     0.156     5.654     0.022     0.000 .00000E+00 0.000E+00 0.000E+00 0.000E+00 0.000E+00 0.000E+00
BIGSUB   9        0    4.51556E+03    45.802     1.300    56.760    30.133    64.168    12.396     0.036    23.481    34.650     0.045     0.026     0.003     0.000     0.000     0.003    10.033     0.030     0.004 .00000E+00 0.000E+00 0.000E+00 0.000E+00 0.000E+00 0.000E+00
BIGSUB  10        0    4.53154E+03    45.816     1.300    57.625    31.042    49.636    12.126     0.024    22.128    30.672     0.030     0.016     0.002     0.000     0.000     0.002     7.462     0.037     0.004 .00000E+00 0.000E+00 0.000E+00 0.000E+00 0.000E+00 0.000E+00
BIGSUB  11        0    4.50741E+03    45.796     1.300    57.423    30.224    61.963    18.754     0.048    32.283    34.352     0.005     0.017     0.002     0.000     0.000     0.002     0.487     0.007     0.011 .00000E+00 0.000E+00 0.000E+00 0.000E+00 0.000E+00 0.000E+00
BIGSUB  12        0    4.46168E+03    86.990     2.470    57.410    37.656    68.103    29.339     2.349    24.241    50.258     4.429     1.219     0.152     0.001     0.000     0.128    22.630     0.068     0.004 .00000E+00 0.000E+00 0.000E+00 0.000E+00 0.000E+00 0.000E+00
BIGSUB  13        0    4.35104E+03    86.972     0.000    61.676    36.861    54.723    23.988     9.290    17.592    49.236    35.456     3.602     0.449     0.009     0.001     0.382    21.547     0.095     0.003 .00000E+00 0.000E+00 0.000E+00 0.000E+00 0.000E+00 0.000E+00
BIGSUB   1        0    5.49654E+03    83.295     1.566   114.662    43.109   117.571    17.767     0.000     3.423     4.786     0.000     0.000     0.000     0.000     0.000     0.000     1.363     0.011     0.001 .00000E+00 0.000E+00 0.000E+00 0.000E+00 0.000E+00 0.000E+00
BIGSUB   2        0    5.43327E+03    83.269     1.594   110.130    55.369   135.574    11.116     3.786     3.150     9.695     1.041     1.563     0.191     0.002     0.001     0.294     2.523     0.035     0.001 .00000E+00 0.000E+00 0.000E+00 0.000E+00 0.000E+00 0.000E+00
BIGSUB   3        0    5.32812E+03    83.302     1.526   107.889    43.824    48.561    15.037     3.934     6.924    22.378     0.483     1.377     0.168     0.000     0.001     0.216    11.141     0.134     0.000 .00000E+00 0.000E+00 0.000E+00 0.000E+00 0.000E+00 0.000E+00
BIGSUB   4        0    5.83628E+03    83.309     1.525   111.995    49.293    73.942     8.006     2.662     3.647    18.182     0.248     0.859     0.105     0.000     0.001     0.128    11.673     0.167     0.000 .00000E+00 0.000E+00 0.000E+00 0.000E+00 0.000E+00 0.000E+00
BIGSUB   5        0    5.53492E+03    83.330     1.512   114.844    44.333    77.965    19.371     4.413     7.713    16.341     1.165     1.868     0.228     0.004     0.001     0.351     3.787     0.036     0.002 .00000E+00 0.000E+00 0.000E+00 0.000E+00 0.000E+00 0.000E+00
BIGSUB   6        0    5.28785E+03   104.178     5.460   103.928    70.496   195.867    26.850     1.472    11.691    14.748     0.548     0.746     0.092     0.000     0.000     0.123     0.840     0.010     0.006 .00000E+00 0.000E+00 0.000E+00 0.000E+00 0.000E+00 0.000E+00
BIGSUB   7        0    5.51917E+03   100.995     0.000    91.256    57.474   207.975    40.478     2.188    21.458    29.126     2.744     3.132     0.382     0.002     0.001     0.480     4.348     0.045     0.010 .00000E+00 0.000E+00 0.000E+00 0.000E+00 0.000E+00 0.000E+00
BIGSUB   8        0    5.73656E+03    83.302     1.525   111.987    41.804    29.632     9.924    22.442     2.901    32.900    24.692     6.239     0.764     0.024     0.004     1.110     7.309     0.014     0.000 .00000E+00 0.000E+00 0.000E+00 0.000E+00 0.000E+00 0.000E+00
BIGSUB   9        0    5.51556E+03   106.072     0.000    76.989    38.306    62.929    36.261     9.858    22.086    55.682    19.640     7.797     0.957     0.003     0.001     0.843    22.620     0.065     0.003 .00000E+00 0.000E+00 0.000E+00 0.000E+00 0.000E+00 0.000E+00
BIGSUB  10        0    5.53154E+03   103.803     0.000    90.381    41.701    45.931    38.504     9.245    21.431    49.591    15.213     7.408     0.908     0.009     0.002     0.906    17.831     0.113     0.004 .00000E+00 0.000E+00 0.000E+00 0.000E+00 0.000E+00 0.000E+00
BIGSUB  11        0    5.50741E+03   103.759     0.000    90.183    40.465    57.848    56.340    10.257    31.613    44.059     3.011     6.434     0.795     0.021     0.004     0.917     0.605     0.008     0.012 .00000E+00 0.000E+00 0.000E+00 0.000E+00 0.000E+00 0.000E+00
BIGSUB  12        0    5.46168E+03   265.081     0.000    77.759    49.963    63.421    83.587    81.238    32.134   169.335   142.713    14.491     1.812     0.005     0.004     1.552    54.712     0.136     0.006 .00000E+00 0.000E+00 0.000E+00 0.000E+00 0.000E+00 0.000E+00
BIGSUB  13        0    5.35104E+03   249.353     0.000    82.419    48.228    51.945    47.789   117.586    22.084   179.262   395.361     9.912     1.229     0.027     0.004     1.040    38.628     0.149     0.004 .00000E+00 0.000E+00 0.000E+00 0.000E+00 0.000E+00 0.000E+00
BIGSUB   1        0    6.49654E+03    46.997    34.544   102.872    47.976   105.704    17.310     0.000     8.371     9.340     0.000     0.000     0.000     0.000     0.000     0.000     0.968     0.008     0.003 .00000E+00 0.000E+00 0.000E+00 0.000E+00 0.000E+00 0.000E+00
BIGSUB   2        0    6.43327E+03    46.982    36.635    97.311    49.638   125.604    10.718     2.264     4.116     8.264     0.355     0.639     0.078     0.004     0.001     0.118     1.615     0.019     0.001 .00000E+00 0.000E+00 0.000E+00 0.000E+00 0.000E+00 0.000E+00
BIGSUB   3        0    6.32812E+03    47.001     0.000    53.780    28.466    46.986     0.000     0.000     8.231     9.037     0.000     0.000     0.000     0.000     0.000     0.000     0.406     0.003     0.001 .00000E+00 0.000E+00 0.000E+00 0.000E+00 0.000E+00 0.000E+00
BIGSUB   4        0    6.83628E+03    47.005     0.000    54.930    29.047    72.360     0.000     0.000     4.299     4.984     0.000     0.000     0.000     0.000     0.000     0.000     0.474     0.005     0.000 .00000E+00 0.000E+00 0.000E+00 0.000E+00 0.000E+00 0.000E+00
BIGSUB   5        0    6.53492E+03    47.017    32.812   102.234    42.587    69.450    15.037     3.000     9.932    15.702     0.434     0.894     0.109     0.006     0.001     0.164     2.292     0.022     0.002 .00000E+00 0.000E+00 0.000E+00 0.000E+00 0.000E+00 0.000E+00
BIGSUB   6        0    6.28785E+03     4.831     0.000   135.540    54.377   144.273     0.000     0.000    14.116    15.125     0.000     0.000     0.000     0.000     0.000     0.000     0.248     0.004     0.008 .00000E+00 0.000E+00 0.000E+00 0.000E+00 0.000E+00 0.000E+00
BIGSUB   7        0    6.51917E+03     3.327     0.000   222.093    74.432   136.860     0.000     0.000    23.153    25.031     0.000     0.000     0.000     0.000     0.000     0.000     0.730     0.009     0.012 .00000E+00 0.000E+00 0.000E+00 0.000E+00 0.000E+00 0.000E+00
BIGSUB   8        0    6.73656E+03    47.001     0.000    54.924    34.243    22.669     0.000     0.000     4.743     5.222     0.000     0.000     0.000     0.000     0.000     0.000     0.217     0.000     0.000 .00000E+00 0.000E+00 0.000E+00 0.000E+00 0.000E+00 0.000E+00
BIGSUB   9        0    6.51556E+03    35.461     0.000   117.385    46.132    45.136     1.637     0.000    22.053    28.960     0.000     0.000     0.000     0.000     0.000     0.000     5.794     0.004     0.003 .00000E+00 0.000E+00 0.000E+00 0.000E+00 0.000E+00 0.000E+00
BIGSUB  10        0    6.53154E+03    15.859     0.000   211.668    38.767    21.292     0.200     0.000    19.855    22.700     0.000     0.000     0.000     0.000     0.000     0.000     1.748     0.001     0.005 .00000E+00 0.000E+00 0.000E+00 0.000E+00 0.000E+00 0.000E+00
BIGSUB  11        0    6.50741E+03    15.852     0.000   211.693    36.824    36.821     0.000     0.002    32.442    34.356     0.000     0.001     0.000     0.000     0.000     0.000     0.307     0.004     0.015 .00000E+00 0.000E+00 0.000E+00 0.000E+00 0.000E+00 0.000E+00
BIGSUB  12        0    6.46168E+03    38.283     0.000   118.197    56.756    38.441     0.232     0.003    41.820    50.191     0.000     0.000     0.000     0.000     0.000     0.000     6.837     0.002     0.008 .00000E+00 0.000E+00 0.000E+00 0.000E+00 0.000E+00 0.000E+00
BIGSUB  13        0    6.35104E+03    39.240     0.000    97.802    39.292    43.301     1.401     0.140    25.166    33.751     0.382     0.001     0.000     0.000     0.000     0.000     7.358     0.006     0.004 .00000E+00 0.000E+00 0.000E+00 0.000E+00 0.000E+00 0.000E+00
BIGSUB   1        0    7.49654E+03     5.000     1.804   113.388    22.119    89.137     0.000     0.000    11.385    11.573     0.000     0.000     0.000     0.000     0.000     0.000     0.187     0.001     0.004 .00000E+00 0.000E+00 0.000E+00 0.000E+00 0.000E+00 0.000E+00
BIGSUB   2        0    7.43327E+03     4.998     1.804   108.370    29.551   101.667     0.000     0.000     4.273     4.890     0.000     0.000     0.000     0.000     0.000     0.000     0.300     0.004     0.001 .00000E+00 0.000E+00 0.000E+00 0.000E+00 0.000E+00 0.000E+00
BIGSUB   3        0    7.32812E+03     5.000     0.000    60.308    32.037    45.102     0.000     0.000     2.487     2.862     0.000     0.000     0.000     0.000     0.000     0.000     0.013     0.000     0.000 .00000E+00 0.000E+00 0.000E+00 0.000E+00 0.000E+00 0.000E+00
BIGSUB   4        0    7.83628E+03     5.001     0.000    60.976    32.358    70.490     0.000     0.000     0.856     1.066     0.000     0.000     0.000     0.000     0.000     0.000     0.020     0.000     0.000 .00000E+00 0.000E+00 0.000E+00 0.000E+00 0.000E+00 0.000E+00
BIGSUB   5        0    7.53492E+03     5.002     1.804   114.511    15.936    59.019     0.000     0.000     9.697    10.665     0.000     0.000     0.000     0.000     0.000     0.000     0.431     0.006     0.002 .00000E+00 0.000E+00 0.000E+00 0.000E+00 0.000E+00 0.000E+00
BIGSUB   6        0    7.28785E+03     0.000     0.000   120.470    37.883   108.471     0.000     0.000     4.902     5.659     0.000     0.000     0.000     0.000     0.000     0.000     0.056     0.001     0.001 .00000E+00 0.000E+00 0.000E+00 0.000E+00 0.000E+00 0.000E+00
BIGSUB   7        0    7.51917E+03     0.000     0.000   287.706    89.792    47.062     0.000     0.000     5.984     7.093     0.000     0.000     0.000     0.000     0.000     0.000     0.061     0.001     0.002 .00000E+00 0.000E+00 0.000E+00 0.000E+00 0.000E+00 0.000E+00
BIGSUB   8        0    7.73656E+03     5.000     0.000    60.968    34.634    18.010     0.000     0.000     2.738     2.983     0.000     0.000     0.000     0.000     0.000     0.000     0.007     0.000     0.000 .00000E+00 0.000E+00 0.000E+00 0.000E+00 0.000E+00 0.000E+00
BIGSUB   9        0    7.51556E+03     0.000     0.000   162.297    34.689    10.449     0.000     0.000    11.937    13.051     0.000     0.000     0.000     0.000     0.000     0.000     0.097     0.000     0.001 .00000E+00 0.000E+00 0.000E+00 0.000E+00 0.000E+00 0.000E+00
BIGSUB  10        0    7.53154E+03     0.000     0.000   271.250    18.150     3.149     0.000     0.000     6.550     7.668     0.000     0.000     0.000     0.000     0.000     0.000     0.118     0.000     0.001 .00000E+00 0.000E+00 0.000E+00 0.000E+00 0.000E+00 0.000E+00
BIGSUB  11        0    7.50741E+03     0.000     0.000   271.570    25.397    11.423     0.000     0.000    16.520    18.080     0.000     0.000     0.000     0.000     0.000     0.000     0.100     0.002     0.004 .00000E+00 0.000E+00 0.000E+00 0.000E+00 0.000E+00 0.000E+00
BIGSUB  12        0    7.46168E+03     0.000     0.000   162.892    31.238     7.192     0.000     0.000    18.501    20.080     0.000     0.000     0.000     0.000     0.000     0.000     0.086     0.000     0.002 .00000E+00 0.000E+00 0.000E+00 0.000E+00 0.000E+00 0.000E+00
BIGSUB  13        0    7.35104E+03     0.000     0.000   114.168    23.812    19.476     0.000     0.000    15.606    16.714     0.000     0.000     0.000     0.000     0.000     0.000     0.081     0.000     0.001 .00000E+00 0.000E+00 0.000E+00 0.000E+00 0.000E+00 0.000E+00
BIGSUB   1        0    8.49654E+03     0.000     0.000   111.281     7.391    81.746     0.000     0.000     5.314     5.333     0.000     0.000     0.000     0.000     0.000     0.000     0.019     0.000     0.001 .00000E+00 0.000E+00 0.000E+00 0.000E+00 0.000E+00 0.000E+00
BIGSUB   2        0    8.43327E+03     0.000     0.000   106.612    12.748    88.914     0.000     0.000     1.417     1.734     0.000     0.000     0.000     0.000     0.000     0.000     0.029     0.000     0.000 .00000E+00 0.000E+00 0.000E+00 0.000E+00 0.000E+00 0.000E+00
BIGSUB   3        0    8.32812E+03     0.000     0.000    98.268    20.334    27.723     0.000     0.000     0.127     0.416     0.000     0.000     0.000     0.000     0.000     0.000     0.002     0.000     0.000 .00000E+00 0.000E+00 0.000E+00 0.000E+00 0.000E+00 0.000E+00
BIGSUB   4        0    8.83628E+03     0.000     0.000   103.879    23.728    48.814     0.000     0.000     0.040     0.194     0.000     0.000     0.000     0.000     0.000     0.000     0.003     0.000     0.000 .00000E+00 0.000E+00 0.000E+00 0.000E+00 0.000E+00 0.000E+00
BIGSUB   5        0    8.53492E+03     0.000     0.000   111.638     6.845    52.177     0.000     0.000     1.842     2.353     0.000     0.000     0.000     0.000     0.000     0.000     0.032     0.000     0.000 .00000E+00 0.000E+00 0.000E+00 0.000E+00 0.000E+00 0.000E+00
BIGSUB   6        0    8.28785E+03     2.863     0.000   103.895    17.372    93.968     0.000     0.000     0.379     0.957     0.000     0.000     0.000     0.000     0.000     0.000     0.019     0.000     0.000 .00000E+00 0.000E+00 0.000E+00 0.000E+00 0.000E+00 0.000E+00
BIGSUB   7        0    8.51917E+03     2.312     0.000   251.109    28.997    20.362     0.000     0.000     0.001     0.857     0.000     0.000     0.000     0.000     0.000     0.000     0.022     0.000     0.000 .00000E+00 0.000E+00 0.000E+00 0.000E+00 0.000E+00 0.000E+00
BIGSUB   8        0    8.73656E+03     0.000     0.000   102.717    11.455     9.299     0.000     0.000     0.083     0.274     0.000     0.000     0.000     0.000     0.000     0.000     0.001     0.000     0.000 .00000E+00 0.000E+00 0.000E+00 0.000E+00 0.000E+00 0.000E+00
BIGSUB   9        0    8.51556E+03    11.510     0.000   133.573    10.567     9.472     0.051     0.000     0.690     3.305     0.000     0.000     0.000     0.000     0.000     0.000     1.803     0.000     0.000 .00000E+00 0.000E+00 0.000E+00 0.000E+00 0.000E+00 0.000E+00
BIGSUB  10        0    8.53154E+03     2.702     0.000   239.575     4.320     1.340     0.000     0.000     0.000     0.982     0.000     0.000     0.000     0.000     0.000     0.000     0.186     0.002     0.000 .00000E+00 0.000E+00 0.000E+00 0.000E+00 0.000E+00 0.000E+00
BIGSUB  11        0    8.50741E+03     2.701     0.000   239.960     9.110     5.005     0.000     0.000     0.000     1.193     0.000     0.000     0.000     0.000     0.000     0.000     0.032     0.001     0.000 .00000E+00 0.000E+00 0.000E+00 0.000E+00 0.000E+00 0.000E+00
BIGSUB  12        0    8.46168E+03    11.506     0.000   133.889     8.486     8.196     0.000     0.000     0.729     3.926     0.000     0.000     0.000     0.000     0.000     0.000     1.977     0.000     0.000 .00000E+00 0.000E+00 0.000E+00 0.000E+00 0.000E+00 0.000E+00
BIGSUB  13        0    8.35104E+03     5.246     0.000    92.234    12.571    11.405     0.000     0.000     4.560     6.131     0.000     0.000     0.000     0.000     0.000     0.000     0.742     0.006     0.000 .00000E+00 0.000E+00 0.000E+00 0.000E+00 0.000E+00 0.000E+00
BIGSUB   1        0    9.49654E+03     0.000     0.000    87.627     4.478    77.268     0.000     0.000     0.361     0.366     0.000     0.000     0.000     0.000     0.000     0.000     0.005     0.000     0.000 .00000E+00 0.000E+00 0.000E+00 0.000E+00 0.000E+00 0.000E+00
BIGSUB   2        0    9.43327E+03     0.000     0.000    83.911     5.425    83.487     0.000     0.000     0.110     0.344     0.000     0.000     0.000     0.000     0.000     0.000     0.008     0.000     0.000 .00000E+00 0.000E+00 0.000E+00 0.000E+00 0.000E+00 0.000E+00
BIGSUB   3        0    9.32812E+03     0.000     0.000    82.029     6.956    20.768     0.000     0.000     0.000     0.213     0.000     0.000     0.000     0.000     0.000     0.000     0.000     0.000     0.000 .00000E+00 0.000E+00 0.000E+00 0.000E+00 0.000E+00 0.000E+00
BIGSUB   4        0    9.83628E+03     0.000     0.000    83.497     9.359    39.456     0.000     0.000     0.000     0.112     0.000     0.000     0.000     0.000     0.000     0.000     0.001     0.000     0.000 .00000E+00 0.000E+00 0.000E+00 0.000E+00 0.000E+00 0.000E+00
BIGSUB   5        0    9.53492E+03     0.000     0.000    87.793     3.856    48.323     0.000     0.000     0.207     0.585     0.000     0.000     0.000     0.000     0.000     0.000     0.006     0.000     0.000 .00000E+00 0.000E+00 0.000E+00 0.000E+00 0.000E+00 0.000E+00
BIGSUB   6        0    9.28785E+03    31.510     3.609    32.034    12.696    95.584     0.000     0.000     0.148     0.576     0.000     0.000     0.000     0.000     0.000     0.000     0.013     0.000     0.000 .00000E+00 0.000E+00 0.000E+00 0.000E+00 0.000E+00 0.000E+00
BIGSUB   7        0    9.51917E+03    12.748     0.000   150.767    12.459    20.487     0.000     0.000     0.000     0.735     0.000     0.000     0.000     0.000     0.000     0.000     0.118     0.001     0.000 .00000E+00 0.000E+00 0.000E+00 0.000E+00 0.000E+00 0.000E+00
BIGSUB   8        0    9.73656E+03     0.000     0.000    83.485     3.174     6.126     0.000     0.000     0.000     0.140     0.000     0.000     0.000     0.000     0.000     0.000     0.000     0.000     0.000 .00000E+00 0.000E+00 0.000E+00 0.000E+00 0.000E+00 0.000E+00
BIGSUB   9        0    9.51556E+03    63.062     0.000    64.074    31.703    25.865     4.016     0.026     0.273    11.596     0.003     0.009     0.001     0.000     0.000     0.001    10.687     0.001     0.000 .00000E+00 0.000E+00 0.000E+00 0.000E+00 0.000E+00 0.000E+00
BIGSUB  10        0    9.53154E+03    47.957     0.000   107.029    25.109    16.918     2.467     0.000     0.000     5.189     0.000     0.000     0.000     0.000     0.000     0.000     4.594     0.007     0.000 .00000E+00 0.000E+00 0.000E+00 0.000E+00 0.000E+00 0.000E+00
BIGSUB  11        0    9.50741E+03    47.937     0.000   107.054    28.953    23.816     0.000     0.000     0.000     0.976     0.000     0.000     0.000     0.000     0.000     0.000     0.116     0.001     0.000 .00000E+00 0.000E+00 0.000E+00 0.000E+00 0.000E+00 0.000E+00
BIGSUB  12        0    9.46168E+03    63.038     0.000    64.345    33.850    26.083     0.156     0.000     0.088    12.009     0.000     0.000     0.000     0.000     0.000     0.000    11.007     0.000     0.000 .00000E+00 0.000E+00 0.000E+00 0.000E+00 0.000E+00 0.000E+00
BIGSUB  13        0    9.35104E+03    51.137     0.000    50.398    19.973    31.839     0.855     0.067     0.144    10.409     0.027     0.002     0.000     0.000     0.000     0.000     9.577     0.012     0.000 .00000E+00 0.000E+00 0.000E+00 0.000E+00 0.000E+00 0.000E+00
BIGSUB   1        0   10.49654E+03    21.999     0.000    30.574    11.245    76.611     0.000     0.000     0.100     0.101     0.000     0.000     0.000     0.000     0.000     0.000     0.001     0.000     0.000 .00000E+00 0.000E+00 0.000E+00 0.000E+00 0.000E+00 0.000E+00
[...]
BIGSUB   7        0    9.51917E+03    16.299     1.300    78.269    25.536   112.679     0.000     0.000     0.000     0.520     0.000     0.000     0.000     0.000     0.000     0.000     0.378     0.000     0.000 .00000E+00 0.000E+00 0.000E+00 0.000E+00 0.000E+00 0.000E+00
BIGSUB   8        0    9.73656E+03     4.100     4.100   110.634     3.901     4.852     0.000     0.000     0.000     0.354     0.000     0.000     0.000     0.000     0.000     0.000     0.323     0.067     0.000 .00000E+00 0.000E+00 0.000E+00 0.000E+00 0.000E+00 0.000E+00
BIGSUB   9        0    9.51556E+03    16.301     1.300    54.456    13.886    17.352     0.394     0.000     0.023     3.167     0.000     0.000     0.000     0.000     0.000     0.000     2.736     0.002     0.000 .00000E+00 0.000E+00 0.000E+00 0.000E+00 0.000E+00 0.000E+00
BIGSUB  10        0    9.53154E+03    16.306     1.300    76.264    14.255    16.138     0.595     0.000     0.000     2.058     0.000     0.000     0.000     0.000     0.000     0.000     1.709     0.007     0.000 .00000E+00 0.000E+00 0.000E+00 0.000E+00 0.000E+00 0.000E+00
BIGSUB  11        0    9.50741E+03    16.299     1.300    76.113    17.996    36.499     0.000     0.000     0.000     0.545     0.000     0.000     0.000     0.000     0.000     0.000     0.052     0.001     0.000 .00000E+00 0.000E+00 0.000E+00 0.000E+00 0.000E+00 0.000E+00
BIGSUB  12        0    9.46168E+03    16.294     1.300    54.903    13.950    12.818     0.000     0.000     0.000     3.343     0.000     0.000     0.000     0.000     0.000     0.000     2.874     0.001     0.000 .00000E+00 0.000E+00 0.000E+00 0.000E+00 0.000E+00 0.000E+00
BIGSUB  13        0    9.35104E+03    16.291     0.000    61.027    13.195    10.926     0.000     0.000     0.000     3.364     0.000     0.000     0.000     0.000     0.000     0.000     3.124     0.011     0.000 .00000E+00 0.000E+00 0.000E+00 0.000E+00 0.000E+00 0.000E+00
BIGSUB   1        0   10.49654E+03    13.599     0.000    65.136    10.201    71.595     0.000     0.000     0.000     0.050     0.000     0.000     0.000     0.000     0.000     0.000     0.050     0.001     0.000 .00000E+00 0.000E+00 0.000E+00 0.000E+00 0.000E+00 0.000E+00
BIGSUB   2        0   10.43327E+03    13.595     0.000    63.800     9.454    72.989     0.000     0.000     0.000     0.088     0.000     0.000     0.000     0.000     0.000     0.000     0.071     0.001     0.000 .00000E+00 0.000E+00 0.000E+00 0.000E+00 0.000E+00 0.000E+00
BIGSUB   3        0   10.32812E+03    13.600     4.587    60.278     7.003    15.149     0.000     0.000     0.000     0.262     0.000     0.000     0.000     0.000     0.000     0.000     0.240     0.007     0.000 .00000E+00 0.000E+00 0.000E+00 0.000E+00 0.000E+00 0.000E+00
BIGSUB   4        0   10.83628E+03    13.601     4.587    60.195     7.038    32.279     0.000     0.000     0.000     0.252     0.000     0.000     0.000     0.000     0.000     0.000     0.239     0.007     0.000 .00000E+00 0.000E+00 0.000E+00 0.000E+00 0.000E+00 0.000E+00
BIGSUB   5        0   10.53492E+03    13.605     0.000    64.975     9.204    45.687     0.000     0.000     0.000     0.144     0.000     0.000     0.000     0.000     0.000     0.000     0.110     0.002     0.000 .00000E+00 0.000E+00 0.000E+00 0.000E+00 0.000E+00 0.000E+00
BIGSUB   6        0   10.28785E+03    15.006     0.000    69.632    11.056    89.057     0.000     0.000     0.000     0.107     0.000     0.000     0.000     0.000     0.000     0.000     0.031     0.000     0.000 .00000E+00 0.000E+00 0.000E+00 0.000E+00 0.000E+00 0.000E+00
BIGSUB   7        0   10.51917E+03    14.999     0.000    51.435    17.177   110.276     0.000     0.000     0.000     0.215     0.000     0.000     0.000     0.000     0.000     0.000     0.106     0.000     0.000 .00000E+00 0.000E+00 0.000E+00 0.000E+00 0.000E+00 0.000E+00
BIGSUB   8        0   10.73656E+03    13.600     4.587    60.178     6.657     6.548     0.000     0.000     0.000     0.529     0.000     0.000     0.000     0.000     0.000     0.000     0.506     0.099     0.000 .00000E+00 0.000E+00 0.000E+00 0.000E+00 0.000E+00 0.000E+00
BIGSUB   9        0   10.51556E+03    15.001     0.000    28.081     6.735    23.411     0.209     0.000     0.017     1.793     0.000     0.000     0.000     0.000     0.000     0.000     1.460     0.001     0.000 .00000E+00 0.000E+00 0.000E+00 0.000E+00 0.000E+00 0.000E+00
BIGSUB  10        0   10.53154E+03    15.005     0.000    49.935     7.921    22.001     0.074     0.000     0.000     1.102     0.000     0.000     0.000     0.000     0.000     0.000     0.830     0.004     0.000 .00000E+00 0.000E+00 0.000E+00 0.000E+00 0.000E+00 0.000E+00
BIGSUB  11        0   10.50741E+03    14.999     0.000    49.876     9.161    42.294     0.000     0.000     0.000     0.400     0.000     0.000     0.000     0.000     0.000     0.000     0.022     0.000     0.000 .00000E+00 0.000E+00 0.000E+00 0.000E+00 0.000E+00 0.000E+00
BIGSUB  12        0   10.46168E+03    14.995     0.000    28.186     6.115    19.557     0.000     0.000     0.000     2.010     0.000     0.000     0.000     0.000     0.000     0.000     1.648     0.001     0.000 .00000E+00 0.000E+00 0.000E+00 0.000E+00 0.000E+00 0.000E+00
BIGSUB  13        0   10.35104E+03    14.992     0.000    31.777     6.327    17.282     0.000     0.000     0.000     1.956     0.000     0.000     0.000     0.000     0.000     0.000     1.772     0.005     0.000 .00000E+00 0.000E+00 0.000E+00 0.000E+00 0.000E+00 0.000E+00
BIGSUB   1        0   11.49654E+03    49.701     2.704    34.731    18.843    97.953     3.666     0.000     0.000     0.735     0.000     0.000     0.000     0.000     0.000     0.000     0.735     0.003     0.000 .00000E+00 0.000E+00 0.000E+00 0.000E+00 0.000E+00 0.000E+00
BIGSUB   2        0   11.43327E+03    50.168     3.187    33.699    17.064   101.194     3.628     0.018     0.000     1.167     0.001     0.003     0.000     0.000     0.000     0.001     1.135     0.006     0.000 .00000E+00 0.000E+00 0.000E+00 0.000E+00 0.000E+00 0.000E+00
BIGSUB   3        0   11.32812E+03    50.188     8.200    33.999    17.133    41.503     5.256     0.000     0.000     5.787     0.000     0.000     0.000     0.000     0.000     0.000     5.768     0.019     0.000 .00000E+00 0.000E+00 0.000E+00 0.000E+00 0.000E+00 0.000E+00
BIGSUB   4        0   11.83628E+03    48.868     6.875    32.761    15.450    63.255     1.199     0.000     0.000     5.636     0.000     0.000     0.000     0.000     0.000     0.000     5.627     0.016     0.000 .00000E+00 0.000E+00 0.000E+00 0.000E+00 0.000E+00 0.000E+00
BIGSUB   5        0   11.53492E+03    49.722     2.704    34.577    17.535    67.771     8.164     0.019     0.000     1.767     0.001     0.003     0.000     0.000     0.000     0.001     1.720     0.004     0.000 .00000E+00 0.000E+00 0.000E+00 0.000E+00 0.000E+00 0.000E+00
BIGSUB   6        0   11.28785E+03    44.017     1.000    27.740    13.964   118.778     0.000     0.000     0.000     0.348     0.000     0.000     0.000     0.000     0.000     0.000     0.294     0.001     0.000 .00000E+00 0.000E+00 0.000E+00 0.000E+00 0.000E+00 0.000E+00
BIGSUB   7        0   11.51917E+03    43.997     0.000    20.286    14.081   138.942     0.000     0.000     0.000     1.337     0.000     0.000     0.000     0.000     0.000     0.000     1.259     0.000     0.000 .00000E+00 0.000E+00 0.000E+00 0.000E+00 0.000E+00 0.000E+00
BIGSUB   8        0   11.73656E+03    48.864     6.875    32.741    18.323    25.933     6.249     2.781     0.000     9.453     1.568     0.867     0.106     0.005     0.000     0.145     6.641     0.120     0.000 .00000E+00 0.000E+00 0.000E+00 0.000E+00 0.000E+00 0.000E+00
BIGSUB   9        0   11.51556E+03    44.001     0.000     9.872     6.865    47.895     4.360     0.034     0.383     9.375     0.004     0.007     0.001     0.000     0.000     0.001     8.717     0.001     0.000 .00000E+00 0.000E+00 0.000E+00 0.000E+00 0.000E+00 0.000E+00
BIGSUB  10        0   11.53154E+03    44.016     0.000    20.990    13.086    39.729     7.530     0.033     0.120     6.236     0.007     0.014     0.002     0.000     0.000     0.002     5.868     0.009     0.000 .00000E+00 0.000E+00 0.000E+00 0.000E+00 0.000E+00 0.000E+00
BIGSUB  11        0   11.50741E+03    43.997     0.000    20.931    15.418    62.770     7.786     0.048     0.000     0.538     0.022     0.034     0.004     0.000     0.000     0.005     0.207     0.001     0.000 .00000E+00 0.000E+00 0.000E+00 0.000E+00 0.000E+00 0.000E+00
BIGSUB  12        0   11.46168E+03    43.985     0.000     9.787     7.854    45.058     2.020     0.003     0.044     9.363     0.000     0.000     0.000     0.000     0.000     0.000     9.054     0.000     0.000 .00000E+00 0.000E+00 0.000E+00 0.000E+00 0.000E+00 0.000E+00
BIGSUB  13        0   11.35104E+03    43.976     0.000    13.871     9.940    37.058     4.487     0.390     0.000    10.384     0.172     0.011     0.001     0.000     0.000     0.001     9.857     0.003     0.000 .00000E+00 0.000E+00 0.000E+00 0.000E+00 0.000E+00 0.000E+00
BIGSUB   1        0   12.49654E+03    36.998     2.725    10.875     5.357   100.202     0.000     0.000     0.000     0.128     0.000     0.000     0.000     0.000     0.000     0.000     0.128     0.001     0.000 .00000E+00 0.000E+00 0.000E+00 0.000E+00 0.000E+00 0.000E+00
BIGSUB   2        0   12.43327E+03    36.986     2.725    10.205     5.098   103.379     0.000     0.000     0.004     0.220     0.000     0.000     0.000     0.000     0.000     0.000     0.182     0.002     0.000 .00000E+00 0.000E+00 0.000E+00 0.000E+00 0.000E+00 0.000E+00
BIGSUB   3        0   12.32812E+03    37.001     3.890     9.972     4.905    44.701     0.000     0.000     0.000     0.689     0.000     0.000     0.000     0.000     0.000     0.000     0.641     0.002     0.000 .00000E+00 0.000E+00 0.000E+00 0.000E+00 0.000E+00 0.000E+00
BIGSUB   4        0   12.83628E+03    37.004     3.890     9.384     4.637    66.415     0.000     0.000     0.000     0.614     0.000     0.000     0.000     0.000     0.000     0.000     0.599     0.001     0.000 .00000E+00 0.000E+00 0.000E+00 0.000E+00 0.000E+00 0.000E+00
BIGSUB   5        0   12.53492E+03    37.013     2.725    10.702     5.323    69.946     0.000     0.000     0.000     0.349     0.000     0.000     0.000     0.000     0.000     0.000     0.274     0.001     0.000 .00000E+00 0.000E+00 0.000E+00 0.000E+00 0.000E+00 0.000E+00
BIGSUB   6        0   12.28785E+03    80.931     2.725    10.637     5.248   121.027     0.000     0.000     0.000     0.092     0.000     0.000     0.000     0.000     0.000     0.000     0.051     0.001     0.000 .00000E+00 0.000E+00 0.000E+00 0.000E+00 0.000E+00 0.000E+00
BIGSUB   7        0   12.51917E+03    80.894     0.000     9.360     6.044   136.725     0.000     0.000     0.000     0.174     0.000     0.000     0.000     0.000     0.000     0.000     0.114     0.000     0.000 .00000E+00 0.000E+00 0.000E+00 0.000E+00 0.000E+00 0.000E+00
BIGSUB   8        0   12.73656E+03    37.001     3.890     9.375     5.092    28.566     0.000     0.000     0.579     1.189     0.000     0.000     0.000     0.000     0.000     0.000     0.549     0.002     0.000 .00000E+00 0.000E+00 0.000E+00 0.000E+00 0.000E+00 0.000E+00
BIGSUB   9        0   12.51556E+03    80.903     0.000     0.552     0.357    47.637     0.000     0.000     1.223     1.515     0.000     0.000     0.000     0.000     0.000     0.000     0.080     0.000     0.000 .00000E+00 0.000E+00 0.000E+00 0.000E+00 0.000E+00 0.000E+00
BIGSUB  10        0   12.53154E+03    80.929     0.000     9.310     5.651    38.127     0.000     0.000     0.716     1.003     0.000     0.000     0.000     0.000     0.000     0.000     0.076     0.000     0.000 .00000E+00 0.000E+00 0.000E+00 0.000E+00 0.000E+00 0.000E+00
BIGSUB  11        0   12.50741E+03    80.894     0.000     9.343     6.577    60.128     0.000     0.000     0.003     0.344     0.000     0.000     0.000     0.000     0.000     0.000     0.074     0.000     0.000 .00000E+00 0.000E+00 0.000E+00 0.000E+00 0.000E+00 0.000E+00
BIGSUB  12        0   12.46168E+03    80.872     0.000     0.482     0.386    44.726     0.000     0.000     0.470     0.746     0.000     0.000     0.000     0.000     0.000     0.000     0.062     0.000     0.000 .00000E+00 0.000E+00 0.000E+00 0.000E+00 0.000E+00 0.000E+00
BIGSUB  13        0   12.35104E+03    80.856    17.200     7.111     6.639    58.698    25.999     5.261     1.814    28.614    15.627     0.078     0.010     0.000     0.000     0.012    21.355     0.048     0.000 .00000E+00 0.000E+00 0.000E+00 0.000E+00 0.000E+00 0.000E+00
BIGSUB   1        0 2015.49654E+03   202.321    39.421  1007.758   189.099   100.202     5.827     0.000     6.520     8.709     0.000     0.000     0.000     0.000     0.000     0.000     2.188     0.028     0.000 .00000E+00 0.000E+00 0.000E+00 0.000E+00 0.000E+00 0.000E+00
BIGSUB   2        0 2015.43327E+03   219.204    40.245   966.026   208.826   103.379     4.963     0.019     5.767    10.071     0.001     0.003     0.000     0.000     0.000     0.001     3.614     0.025     0.001 .00000E+00 0.000E+00 0.000E+00 0.000E+00 0.000E+00 0.000E+00
BIGSUB   3        0 2015.32812E+03   219.292    56.432  1155.552   177.253    44.701     6.202     0.000     6.374    23.532     0.000     0.000     0.000     0.000     0.000     0.000    16.167     0.049     0.000 .00000E+00 0.000E+00 0.000E+00 0.000E+00 0.000E+00 0.000E+00
BIGSUB   4        0 2015.83628E+03   217.985    55.173  1179.683   186.639    66.415     1.723     0.000     2.622    19.822     0.000     0.000     0.000     0.000     0.000     0.000    16.661     0.046     0.000 .00000E+00 0.000E+00 0.000E+00 0.000E+00 0.000E+00 0.000E+00
BIGSUB   5        0 2015.53492E+03   218.882    39.372  1008.384   190.130    69.946    11.080     0.019    13.139    20.023     0.001     0.003     0.000     0.000     0.000     0.001     5.518     0.013     0.000 .00000E+00 0.000E+00 0.000E+00 0.000E+00 0.000E+00 0.000E+00
BIGSUB   6        0 2015.28785E+03   320.412    55.313   971.700   302.123   121.027    12.552     1.197    42.191    48.386     0.665     0.721     0.088     0.001     0.000     0.123     2.070     0.056     0.019 .00000E+00 0.000E+00 0.000E+00 0.000E+00 0.000E+00 0.000E+00
BIGSUB   7        0 2015.51917E+03   333.495    48.761   829.487   279.605   136.725    38.325     2.053     6.183    20.267     2.345     2.849     0.365     0.012     0.001     0.458     9.024     0.087     0.001 .00000E+00 0.000E+00 0.000E+00 0.000E+00 0.000E+00 0.000E+00
BIGSUB   8        0 2015.73656E+03   217.969    55.178  1179.518   163.884    28.566     8.780     4.996     5.222    30.092     3.199     1.457     0.178     0.015     0.001     0.236    19.107     0.371     0.000 .00000E+00 0.000E+00 0.000E+00 0.000E+00 0.000E+00 0.000E+00
BIGSUB   9        0 2015.51556E+03   386.021   100.146   556.611   159.554    47.637    84.482    22.766   128.874   221.908    58.884    23.558     2.898     0.007     0.002     2.624    61.937     0.117     0.014 .00000E+00 0.000E+00 0.000E+00 0.000E+00 0.000E+00 0.000E+00
BIGSUB  10        0 2015.53154E+03   354.891    62.734   803.359   177.230    38.127    69.707     8.932    91.398   146.091     7.510     6.712     0.827     0.020     0.002     0.856    38.407     0.203     0.019 .00000E+00 0.000E+00 0.000E+00 0.000E+00 0.000E+00 0.000E+00
BIGSUB  11        0 2015.50741E+03   354.738    62.635   802.238   176.955    60.128    93.193    11.218   164.327   188.333     1.986     4.737     0.606     0.054     0.004     0.713     2.238     0.037     0.068 .00000E+00 0.000E+00 0.000E+00 0.000E+00 0.000E+00 0.000E+00
BIGSUB  12        0 2015.46168E+03   486.544   104.826   560.924   190.975    44.726    92.986    68.978   124.832   283.813   186.202    29.867     3.700     0.007     0.005     3.121    81.661     0.117     0.009 .00000E+00 0.000E+00 0.000E+00 0.000E+00 0.000E+00 0.000E+00
BIGSUB  13        0 2015.35104E+03   472.658    32.326   680.518   220.954    58.698    77.535    84.033    76.721   257.697   647.094    26.502     3.268     0.018     0.005     2.791    91.361     0.183     0.005 .00000E+00 0.000E+00 0.000E+00 0.000E+00 0.000E+00 0.000E+00
BIGSUB   1        0  6.0.49654E+03   284.618    50.673   829.594   229.842   100.202    36.906     0.002    24.045    27.974     0.000     0.000     0.000     0.000     0.000     0.000     3.926     0.062     0.009 .00000E+00 0.000E+00 0.000E+00 0.000E+00 0.000E+00 0.000E+00
BIGSUB   2        0  6.0.43327E+03   317.311    61.479   787.389   259.546   103.379    31.761     3.793    17.819    30.428     1.058     1.750     0.214     0.004     0.001     0.328     7.253     0.096     0.006 .00000E+00 0.000E+00 0.000E+00 0.000E+00 0.000E+00 0.000E+00
BIGSUB   3        0  6.0.32812E+03   317.439    68.197   803.596   228.977    44.701    40.110     8.377    26.662    68.308     2.394     4.715     0.577     0.002     0.003     0.792    31.295     0.271     0.003 .00000E+00 0.000E+00 0.000E+00 0.000E+00 0.000E+00 0.000E+00
BIGSUB   4        0  6.0.83628E+03   317.243    68.434   818.825   243.712    66.415    22.624     6.607    13.046    53.587     2.306     4.140     0.506     0.001     0.002     0.720    32.809     0.359     0.002 .00000E+00 0.000E+00 0.000E+00 0.000E+00 0.000E+00 0.000E+00
BIGSUB   5        0  6.0.53492E+03   317.464    56.155   824.130   238.313    69.946    51.324     4.962    33.892    52.097     1.124     2.201     0.269     0.003     0.002     0.412    10.732     0.082     0.005 .00000E+00 0.000E+00 0.000E+00 0.000E+00 0.000E+00 0.000E+00
BIGSUB   6        0  6.0.28785E+03   393.383    66.849   822.724   316.911   121.027    58.513     2.281    38.570    46.926     1.007     1.388     0.170     0.001     0.000     0.234     3.165     0.100     0.022 .00000E+00 0.000E+00 0.000E+00 0.000E+00 0.000E+00 0.000E+00
BIGSUB   7        0  6.0.51917E+03   407.522    42.487  1055.735   327.420   136.725    58.508     1.290    36.604    54.726     1.306     1.586     0.197     0.003     0.000     0.244    13.927     0.155     0.025 .00000E+00 0.000E+00 0.000E+00 0.000E+00 0.000E+00 0.000E+00
BIGSUB   8        0  6.0.73656E+03   317.219    68.741   818.480   221.904    28.566    25.968    34.940    14.924    78.731    56.358    16.969     2.087     0.064     0.006     2.602    27.597     0.231     0.001 .00000E+00 0.000E+00 0.000E+00 0.000E+00 0.000E+00 0.000E+00
BIGSUB   9        0  6.0.51556E+03   596.325   164.252   646.132   217.528    47.637   203.549    40.900   174.571   350.771    27.297    17.470     2.143     0.017     0.006     1.997   124.578     0.271     0.022 .00000E+00 0.000E+00 0.000E+00 0.000E+00 0.000E+00 0.000E+00
BIGSUB  10        0  6.0.53154E+03   453.720    56.546  1008.951   232.926    38.127   129.152    12.047    82.068   169.608    12.302     8.432     1.033     0.021     0.003     1.063    68.843     0.335     0.016 .00000E+00 0.000E+00 0.000E+00 0.000E+00 0.000E+00 0.000E+00
BIGSUB  11        0  6.0.50741E+03   453.524    56.529  1008.321   241.833    60.128   183.515    12.686   135.507   160.773     3.099     6.636     0.830     0.040     0.004     0.934     3.075     0.037     0.051 .00000E+00 0.000E+00 0.000E+00 0.000E+00 0.000E+00 0.000E+00
BIGSUB  12        0  6.0.46168E+03   762.219   178.974   648.392   251.335    44.726   244.143    83.919   211.054   481.645   119.054    20.795     2.578     0.013     0.005     2.176   173.982     0.295     0.025 .00000E+00 0.000E+00 0.000E+00 0.000E+00 0.000E+00 0.000E+00
BIGSUB  13        0  6.0.35104E+03   674.788    13.646   652.656   255.153    58.698   160.464   108.275   123.188   390.114   405.299    20.482     2.536     0.050     0.005     2.136   150.645     0.459     0.014 .00000E+00 0.000E+00 0.000E+00 0.000E+00 0.000E+00 0.000E+00
